Using: /usr/local/apps/synopsys/current_hspice/hspice/linux/hspice sim_deck
 ****** HSPICE -- F-2011.09-SP2 32-BIT (Feb 27 2012) linux ******               
  Copyright (C) 2011 Synopsys, Inc. All Rights Reserved.                        
  Unpublished-rights reserved under US copyright laws.
  This program is protected by law and is subject to the
  terms and conditions of the license agreement from Synopsys.
  Use of this program is your acceptance to be bound by the
  license agreement. HSPICE is the trademark of Synopsys, Inc.
  Input File: sim_deck                                                          
  Command line options: sim_deck
 lic:  
 lic: FLEXlm: v10.8 
 lic: USER:   branaugj             HOSTNAME: dear119-19.engr.oregonstate.edu 
 lic: HOSTID: 8851fb6cf8de         PID:      1328 
 lic: Using FLEXlm license file: 
 lic: 7188@license.eecs.oregonstate.edu 
 lic: Checkout 1 hspice 
 lic: License/Maintenance for hspice will expire on 11-aug-2014/2013.03 
 lic: 5(in_use)/50(total) FLOATING license(s) on SERVER license.eecs.oregonstate
 lic:   
 Init: read install configuration file: /usr/local/apps/synopsys/current_hspice/hspice/meta.cfg
 **warning** (./netlists/sram_netlist.sp:625)'.end' can not exist in include/lib files, ignored

 **warning**  runlvl smaller than 5, reset to 5  when accurate turned on
 scientific notation:
 a=10**-18  f=10**-15  p=10**-12  n=10**-9  u=10**-6
 m=10**-3   k=10**3    x=10**6    g=10**9 

 **warning**  runlvl smaller than 5, reset to 5  when accurate turned on
1****** HSPICE -- F-2011.09-SP2 32-BIT (Feb 27 2012) linux ******               
 ******  
 * 'sup' is a variable you set to adjust the supply voltage

  ******  circuit name directory
 circuit number to circuit name directory
   number circuitname                     definition         multiplier
        0 main circuit
        1 xi297.                          sub1               1.00 
        2 xi299.                          sub1               1.00 
        3 xi298.                          sub1               1.00 
        4 xi304.                          sub1               1.00 
        5 xi305.                          sub1               1.00 
        6 xi303.                          sub1               1.00 
        7 xi300.                          sub1               1.00 
        8 xi301.                          sub1               1.00 
        9 xi290.                          sub1               1.00 
       10 xi296.                          sub1               1.00 
       11 xi292.                          sub1               1.00 
       12 xi291.                          sub1               1.00 
       13 xi294.                          sub1               1.00 
       14 xi295.                          sub1               1.00 
       15 xi293.                          sub1               1.00 
       16 xi302.                          sub1               1.00 
       17 xi81.                           sub2               1.00 
       18 xi80.                           sub2               1.00 
       19 xi79.                           sub2               1.00 
       20 xi78.                           sub2               1.00 
       21 xi77.                           sub2               1.00 
       22 xi76.                           sub2               1.00 
       23 xi75.                           sub2               1.00 
       24 xi74.                           sub2               1.00 
       25 xi41.                           sub2               1.00 
       26 xi40.                           sub2               1.00 
       27 xi39.                           sub2               1.00 
       28 xi38.                           sub2               1.00 
       29 xi21.                           sub2               1.00 
       30 xi20.                           sub2               1.00 
       31 xi19.                           sub2               1.00 
       32 xi18.                           sub2               1.00 
       33 xi161.                          sub2               1.00 
       34 xi160.                          sub2               1.00 
       35 xi159.                          sub2               1.00 
       36 xi158.                          sub2               1.00 
       37 xi157.                          sub2               1.00 
       38 xi156.                          sub2               1.00 
       39 xi155.                          sub2               1.00 
       40 xi154.                          sub2               1.00 
       41 xi153.                          sub2               1.00 
       42 xi152.                          sub2               1.00 
       43 xi151.                          sub2               1.00 
       44 xi150.                          sub2               1.00 
       45 xi149.                          sub2               1.00 
       46 xi148.                          sub2               1.00 
       47 xi147.                          sub2               1.00 
       48 xi146.                          sub2               1.00 
       49 xi145.                          final_sram_g2      1.00 
       50 xi144.                          final_sram_g2      1.00 
       51 xi143.                          final_sram_g2      1.00 
       52 xi142.                          final_sram_g2      1.00 
       53 xi141.                          final_sram_g2      1.00 
       54 xi140.                          final_sram_g2      1.00 
       55 xi139.                          final_sram_g2      1.00 
       56 xi138.                          final_sram_g2      1.00 
       57 xi137.                          final_sram_g2      1.00 
       58 xi136.                          final_sram_g2      1.00 
       59 xi135.                          final_sram_g2      1.00 
       60 xi134.                          final_sram_g2      1.00 
       61 xi133.                          final_sram_g2      1.00 
       62 xi132.                          final_sram_g2      1.00 
       63 xi131.                          final_sram_g2      1.00 
       64 xi130.                          final_sram_g2      1.00 
       65 xi129.                          final_sram_g2      1.00 
       66 xi128.                          final_sram_g2      1.00 
       67 xi127.                          final_sram_g2      1.00 
       68 xi126.                          final_sram_g2      1.00 
       69 xi125.                          final_sram_g2      1.00 
       70 xi124.                          final_sram_g2      1.00 
       71 xi123.                          final_sram_g2      1.00 
       72 xi122.                          final_sram_g2      1.00 
       73 xi121.                          final_sram_g2      1.00 
       74 xi120.                          final_sram_g2      1.00 
       75 xi119.                          final_sram_g2      1.00 
       76 xi118.                          final_sram_g2      1.00 
       77 xi117.                          final_sram_g2      1.00 
       78 xi116.                          final_sram_g2      1.00 
       79 xi115.                          final_sram_g2      1.00 
       80 xi114.                          final_sram_g2      1.00 
       81 xi113.                          final_sram_g2      1.00 
       82 xi112.                          final_sram_g2      1.00 
       83 xi111.                          final_sram_g2      1.00 
       84 xi110.                          final_sram_g2      1.00 
       85 xi109.                          final_sram_g2      1.00 
       86 xi108.                          final_sram_g2      1.00 
       87 xi107.                          final_sram_g2      1.00 
       88 xi106.                          final_sram_g2      1.00 
       89 xi105.                          final_sram_g2      1.00 
       90 xi104.                          final_sram_g2      1.00 
       91 xi103.                          final_sram_g2      1.00 
       92 xi102.                          final_sram_g2      1.00 
       93 xi101.                          final_sram_g2      1.00 
       94 xi100.                          final_sram_g2      1.00 
       95 xi99.                           final_sram_g2      1.00 
       96 xi98.                           final_sram_g2      1.00 
       97 xi97.                           final_sram_g2      1.00 
       98 xi96.                           final_sram_g2      1.00 
       99 xi95.                           final_sram_g2      1.00 
      100 xi94.                           final_sram_g2      1.00 
      101 xi93.                           final_sram_g2      1.00 
      102 xi92.                           final_sram_g2      1.00 
      103 xi91.                           final_sram_g2      1.00 
      104 xi90.                           final_sram_g2      1.00 
      105 xi89.                           final_sram_g2      1.00 
      106 xi88.                           final_sram_g2      1.00 
      107 xi87.                           final_sram_g2      1.00 
      108 xi86.                           final_sram_g2      1.00 
      109 xi85.                           final_sram_g2      1.00 
      110 xi84.                           final_sram_g2      1.00 
      111 xi83.                           final_sram_g2      1.00 
      112 xi82.                           final_sram_g2      1.00 
      113 xi73.                           final_sram_g2      1.00 
      114 xi72.                           final_sram_g2      1.00 
      115 xi71.                           final_sram_g2      1.00 
      116 xi70.                           final_sram_g2      1.00 
      117 xi69.                           final_sram_g2      1.00 
      118 xi68.                           final_sram_g2      1.00 
      119 xi67.                           final_sram_g2      1.00 
      120 xi66.                           final_sram_g2      1.00 
      121 xi65.                           final_sram_g2      1.00 
      122 xi64.                           final_sram_g2      1.00 
      123 xi63.                           final_sram_g2      1.00 
      124 xi62.                           final_sram_g2      1.00 
      125 xi61.                           final_sram_g2      1.00 
      126 xi60.                           final_sram_g2      1.00 
      127 xi59.                           final_sram_g2      1.00 
      128 xi58.                           final_sram_g2      1.00 
      129 xi57.                           final_sram_g2      1.00 
      130 xi56.                           final_sram_g2      1.00 
      131 xi55.                           final_sram_g2      1.00 
      132 xi54.                           final_sram_g2      1.00 
      133 xi53.                           final_sram_g2      1.00 
      134 xi52.                           final_sram_g2      1.00 
      135 xi51.                           final_sram_g2      1.00 
      136 xi50.                           final_sram_g2      1.00 
      137 xi49.                           final_sram_g2      1.00 
      138 xi48.                           final_sram_g2      1.00 
      139 xi47.                           final_sram_g2      1.00 
      140 xi46.                           final_sram_g2      1.00 
      141 xi45.                           final_sram_g2      1.00 
      142 xi44.                           final_sram_g2      1.00 
      143 xi43.                           final_sram_g2      1.00 
      144 xi42.                           final_sram_g2      1.00 
      145 xi37.                           final_sram_g2      1.00 
      146 xi36.                           final_sram_g2      1.00 
      147 xi35.                           final_sram_g2      1.00 
      148 xi34.                           final_sram_g2      1.00 
      149 xi33.                           final_sram_g2      1.00 
      150 xi32.                           final_sram_g2      1.00 
      151 xi31.                           final_sram_g2      1.00 
      152 xi30.                           final_sram_g2      1.00 
      153 xi29.                           final_sram_g2      1.00 
      154 xi28.                           final_sram_g2      1.00 
      155 xi27.                           final_sram_g2      1.00 
      156 xi26.                           final_sram_g2      1.00 
      157 xi25.                           final_sram_g2      1.00 
      158 xi24.                           final_sram_g2      1.00 
      159 xi23.                           final_sram_g2      1.00 
      160 xi22.                           final_sram_g2      1.00 
      161 xi289.                          final_sram_g2      1.00 
      162 xi288.                          final_sram_g2      1.00 
      163 xi287.                          final_sram_g2      1.00 
      164 xi286.                          final_sram_g2      1.00 
      165 xi285.                          final_sram_g2      1.00 
      166 xi284.                          final_sram_g2      1.00 
      167 xi283.                          final_sram_g2      1.00 
      168 xi282.                          final_sram_g2      1.00 
      169 xi281.                          final_sram_g2      1.00 
      170 xi280.                          final_sram_g2      1.00 
      171 xi279.                          final_sram_g2      1.00 
      172 xi278.                          final_sram_g2      1.00 
      173 xi277.                          final_sram_g2      1.00 
      174 xi276.                          final_sram_g2      1.00 
      175 xi275.                          final_sram_g2      1.00 
      176 xi274.                          final_sram_g2      1.00 
      177 xi273.                          final_sram_g2      1.00 
      178 xi272.                          final_sram_g2      1.00 
      179 xi271.                          final_sram_g2      1.00 
      180 xi270.                          final_sram_g2      1.00 
      181 xi269.                          final_sram_g2      1.00 
      182 xi268.                          final_sram_g2      1.00 
      183 xi267.                          final_sram_g2      1.00 
      184 xi266.                          final_sram_g2      1.00 
      185 xi265.                          final_sram_g2      1.00 
      186 xi264.                          final_sram_g2      1.00 
      187 xi263.                          final_sram_g2      1.00 
      188 xi262.                          final_sram_g2      1.00 
      189 xi261.                          final_sram_g2      1.00 
      190 xi260.                          final_sram_g2      1.00 
      191 xi259.                          final_sram_g2      1.00 
      192 xi258.                          final_sram_g2      1.00 
      193 xi257.                          final_sram_g2      1.00 
      194 xi256.                          final_sram_g2      1.00 
      195 xi255.                          final_sram_g2      1.00 
      196 xi254.                          final_sram_g2      1.00 
      197 xi253.                          final_sram_g2      1.00 
      198 xi252.                          final_sram_g2      1.00 
      199 xi251.                          final_sram_g2      1.00 
      200 xi250.                          final_sram_g2      1.00 
      201 xi249.                          final_sram_g2      1.00 
      202 xi248.                          final_sram_g2      1.00 
      203 xi247.                          final_sram_g2      1.00 
      204 xi246.                          final_sram_g2      1.00 
      205 xi245.                          final_sram_g2      1.00 
      206 xi244.                          final_sram_g2      1.00 
      207 xi243.                          final_sram_g2      1.00 
      208 xi242.                          final_sram_g2      1.00 
      209 xi241.                          final_sram_g2      1.00 
      210 xi240.                          final_sram_g2      1.00 
      211 xi239.                          final_sram_g2      1.00 
      212 xi238.                          final_sram_g2      1.00 
      213 xi237.                          final_sram_g2      1.00 
      214 xi236.                          final_sram_g2      1.00 
      215 xi235.                          final_sram_g2      1.00 
      216 xi234.                          final_sram_g2      1.00 
      217 xi233.                          final_sram_g2      1.00 
      218 xi232.                          final_sram_g2      1.00 
      219 xi231.                          final_sram_g2      1.00 
      220 xi230.                          final_sram_g2      1.00 
      221 xi229.                          final_sram_g2      1.00 
      222 xi228.                          final_sram_g2      1.00 
      223 xi227.                          final_sram_g2      1.00 
      224 xi226.                          final_sram_g2      1.00 
      225 xi225.                          final_sram_g2      1.00 
      226 xi224.                          final_sram_g2      1.00 
      227 xi223.                          final_sram_g2      1.00 
      228 xi222.                          final_sram_g2      1.00 
      229 xi221.                          final_sram_g2      1.00 
      230 xi220.                          final_sram_g2      1.00 
      231 xi219.                          final_sram_g2      1.00 
      232 xi218.                          final_sram_g2      1.00 
      233 xi217.                          final_sram_g2      1.00 
      234 xi216.                          final_sram_g2      1.00 
      235 xi215.                          final_sram_g2      1.00 
      236 xi214.                          final_sram_g2      1.00 
      237 xi213.                          final_sram_g2      1.00 
      238 xi212.                          final_sram_g2      1.00 
      239 xi211.                          final_sram_g2      1.00 
      240 xi210.                          final_sram_g2      1.00 
      241 xi209.                          final_sram_g2      1.00 
      242 xi208.                          final_sram_g2      1.00 
      243 xi207.                          final_sram_g2      1.00 
      244 xi206.                          final_sram_g2      1.00 
      245 xi205.                          final_sram_g2      1.00 
      246 xi204.                          final_sram_g2      1.00 
      247 xi203.                          final_sram_g2      1.00 
      248 xi202.                          final_sram_g2      1.00 
      249 xi201.                          final_sram_g2      1.00 
      250 xi200.                          final_sram_g2      1.00 
      251 xi199.                          final_sram_g2      1.00 
      252 xi198.                          final_sram_g2      1.00 
      253 xi197.                          final_sram_g2      1.00 
      254 xi196.                          final_sram_g2      1.00 
      255 xi195.                          final_sram_g2      1.00 
      256 xi194.                          final_sram_g2      1.00 
      257 xi193.                          final_sram_g2      1.00 
      258 xi192.                          final_sram_g2      1.00 
      259 xi191.                          final_sram_g2      1.00 
      260 xi190.                          final_sram_g2      1.00 
      261 xi189.                          final_sram_g2      1.00 
      262 xi188.                          final_sram_g2      1.00 
      263 xi187.                          final_sram_g2      1.00 
      264 xi186.                          final_sram_g2      1.00 
      265 xi185.                          final_sram_g2      1.00 
      266 xi184.                          final_sram_g2      1.00 
      267 xi183.                          final_sram_g2      1.00 
      268 xi182.                          final_sram_g2      1.00 
      269 xi181.                          final_sram_g2      1.00 
      270 xi180.                          final_sram_g2      1.00 
      271 xi179.                          final_sram_g2      1.00 
      272 xi178.                          final_sram_g2      1.00 
      273 xi177.                          final_sram_g2      1.00 
      274 xi176.                          final_sram_g2      1.00 
      275 xi175.                          final_sram_g2      1.00 
      276 xi174.                          final_sram_g2      1.00 
      277 xi173.                          final_sram_g2      1.00 
      278 xi172.                          final_sram_g2      1.00 
      279 xi171.                          final_sram_g2      1.00 
      280 xi170.                          final_sram_g2      1.00 
      281 xi169.                          final_sram_g2      1.00 
      282 xi168.                          final_sram_g2      1.00 
      283 xi167.                          final_sram_g2      1.00 
      284 xi166.                          final_sram_g2      1.00 
      285 xi165.                          final_sram_g2      1.00 
      286 xi164.                          final_sram_g2      1.00 
      287 xi163.                          final_sram_g2      1.00 
      288 xi162.                          final_sram_g2      1.00 
      289 xi17.                           final_sram_g2      1.00 
      290 xi16.                           final_sram_g2      1.00 
      291 xi15.                           final_sram_g2      1.00 
      292 xi14.                           final_sram_g2      1.00 
      293 xi13.                           final_sram_g2      1.00 
      294 xi12.                           final_sram_g2      1.00 
      295 xi11.                           final_sram_g2      1.00 
      296 xi10.                           final_sram_g2      1.00 
      297 xi9.                            final_sram_g2      1.00 
      298 xi8.                            final_sram_g2      1.00 
      299 xi7.                            final_sram_g2      1.00 
      300 xi6.                            final_sram_g2      1.00 
      301 xi5.                            final_sram_g2      1.00 
      302 xi4.                            final_sram_g2      1.00 
      303 xi3.                            final_sram_g2      1.00 
      304 xi2.                            final_sram_g2      1.00 
      305 xi1.                            final_decoder_g3   1.00 
      306 xi81.xi0.                       sub1               1.00 
      307 xi80.xi0.                       sub1               1.00 
      308 xi79.xi0.                       sub1               1.00 
      309 xi78.xi0.                       sub1               1.00 
      310 xi77.xi0.                       sub1               1.00 
      311 xi76.xi0.                       sub1               1.00 
      312 xi75.xi0.                       sub1               1.00 
      313 xi74.xi0.                       sub1               1.00 
      314 xi41.xi0.                       sub1               1.00 
      315 xi40.xi0.                       sub1               1.00 
      316 xi39.xi0.                       sub1               1.00 
      317 xi38.xi0.                       sub1               1.00 
      318 xi21.xi0.                       sub1               1.00 
      319 xi20.xi0.                       sub1               1.00 
      320 xi19.xi0.                       sub1               1.00 
      321 xi18.xi0.                       sub1               1.00 
      322 xi161.xi0.                      sub1               1.00 
      323 xi160.xi0.                      sub1               1.00 
      324 xi159.xi0.                      sub1               1.00 
      325 xi158.xi0.                      sub1               1.00 
      326 xi157.xi0.                      sub1               1.00 
      327 xi156.xi0.                      sub1               1.00 
      328 xi155.xi0.                      sub1               1.00 
      329 xi154.xi0.                      sub1               1.00 
      330 xi153.xi0.                      sub1               1.00 
      331 xi152.xi0.                      sub1               1.00 
      332 xi151.xi0.                      sub1               1.00 
      333 xi150.xi0.                      sub1               1.00 
      334 xi149.xi0.                      sub1               1.00 
      335 xi148.xi0.                      sub1               1.00 
      336 xi147.xi0.                      sub1               1.00 
      337 xi146.xi0.                      sub1               1.00 
      338 xi1.xi18.                       sub1               1.00 
      339 xi1.xi20.                       sub1               1.00 
      340 xi1.xi17.                       sub1               1.00 
      341 xi1.xi19.                       sub1               1.00 
      342 xi1.xi15.                       final_and4_g1      1.00 
      343 xi1.xi14.                       final_and4_g1      1.00 
      344 xi1.xi13.                       final_and4_g1      1.00 
      345 xi1.xi12.                       final_and4_g1      1.00 
      346 xi1.xi11.                       final_and4_g1      1.00 
      347 xi1.xi10.                       final_and4_g1      1.00 
      348 xi1.xi9.                        final_and4_g1      1.00 
      349 xi1.xi8.                        final_and4_g1      1.00 
      350 xi1.xi7.                        final_and4_g1      1.00 
      351 xi1.xi6.                        final_and4_g1      1.00 
      352 xi1.xi5.                        final_and4_g1      1.00 
      353 xi1.xi4.                        final_and4_g1      1.00 
      354 xi1.xi3.                        final_and4_g1      1.00 
      355 xi1.xi2.                        final_and4_g1      1.00 
      356 xi1.xi1.                        final_and4_g1      1.00 
      357 xi1.xi0.                        final_and4_g1      1.00 


 circuit parameter definitions
  parameter          =  value 

     0:sup                                                     =   2.5000       
     0:del_t                                                   =  10.0000n      




 constants  - tnom         kt           vt           gapsi        ni
            298.15000    4.1163e-21    25.69184m     1.11562    1.2565e+16 
1****** HSPICE -- F-2011.09-SP2 32-BIT (Feb 27 2012) linux ******               
 ******  
 * 'sup' is a variable you set to adjust the supply voltage

  ******  mos   model parameters tnom=  25.000 temp=  25.000 *****
 ***************************************************************************
 ***        model parameters  model name:   0:tsmc25dn model type:nmos   ***
 ***************************************************************************

   *** general parameters ***
    deriv=   0.           

   ***  level 49  model parameters  ***

      hspver=    2006.03               level=         49         
     version=        3.1            paramchk=          0         
      apwarn=          1                lite=          0         
      vgslim=          0             binUnit=          1         
      capMod=          2               xpart=        0.4         
      mobMod=          1              nqsMod=          0         
      stiMod=          0                 elm=          5         
    sfvtflag=          0                 tox=    5.8e-09 meter   
          xj=      1e-07 meter       binflag=          0         
        lmin=          0 meter          lmax=          0 meter   
        wmin=          0 meter          wmax=          0 meter   
        lref=          0 meter          wref=          0 meter   
        lint=4.39347e-09 meter          wint= 2.1265e-09 meter   
       lmult=          1               wmult=          1         
          ll=          0                 lln=          1         
          lw=          0                 lwn=          1         
         lwl=          0                  wl=          0         
         wln=          1                  ww=          0         
         wwn=          1                 wwl=          0         
         dwg=-3.40903e-09 m/V             dwb=2.79484e-09 m/V^1/2 
          xl=     -3e-08                  xw=          0         
          a0=    1.23186                 ags=   0.304333 V^-1    
          b0=6.67749e-08 meter            b1=      5e-06 meter   
        keta=0.000851805 V^-1           voff=  -0.102605 V       
       ngate=          0 cm^-3           vbx=          0 V       
         vbm=         -3 V                xt=   1.55e-07 meter   
        vth0=   0.430894 V               nch= 2.3549e+17 cm^-3   
        nsub=      6e+16 cm^-3           nlx= 1.4659e-07 meter   
      gamma1=          0 V^-1/2       gamma2=          0 V^-1/2  
          k1=   0.351943 V^1/2            k2=  0.0298493         
          k3=      0.001                 k3b=  0.0592323 V^-1    
          w0=      1e-05 meter          dvt0=  0.0183405         
        dvt1= 0.00489758                dvt2= -0.0252658 V^-1    
       dvt0w=          0 meter^-1      dvt1w=          0 meter^-1
       dvt2w=          0 V^-1           dsub= 0.00304547         
        eta0= 0.00348737                etab=0.000455799 V^-1    
          u0=    455.303 cm^2/V/sec         ua=5.22359e-10 m/V     
          ub=1.10471e-18 (m/V)^2          uc=3.28789e-11 V^-1    
        vsat=     105099 m/sec            a1=          0 v^-1    
          a2=          1               delta=       0.01 V       
        rdsw=    509.568 ohm-um         prwg=  0.0227558 V^-1    
        prwb=     -0.001 V^-1/2           wr=          1         
        pclm=    1.04463             pdiblc1=   0.144195         
     pdiblc2=0.000451338             pdiblcb=-2.81676e-05 V^-1    
      pscbe1=1.76111e+10 V/m          pscbe2=3.77292e-09 V/m     
       drout=   0.469872                pvag=  0.0361824         
     nfactor=   0.134489                cdsc= 0.00152751 f/m^2   
       cdscb=          0 f/V/m^2       cdscd=          0 f/V/m^2 
         cit=          0 f/m^2        alpha0=          0 m/V     
       beta0=         30 V               dlc=4.39347e-09 meter   
         dwc= 2.1265e-09 meter           clc=      1e-07 meter   
         cle=        0.6                cgso=   6.27e-10 f/m     
        cgdo=   6.27e-10 f/m            cgbo=          0 f/m     
        cgsl=          0 f/m            cgdl=          0 f/m     
      ckappa=        0.6                  cf=9.33852e-11 f/m     
        tnom=     300.15 K               kt1=      -0.11 V       
        kt1l=          0                 kt2=      0.022         
         ute=       -1.5                 ua1=   4.31e-09 m/V     
         ub1=  -7.61e-18 (m/V)^2         uc1=   -5.6e-11 m/V^2   
          at=      33000 m/s             prt=          0         
         using Berkeley noise model       noiMod=          1         
        noia=      1e+20                noib=      50000         
        noic=   -1.4e-12                  em=    4.1e+07         
          ef=          1                  af=          1         
          kf=          0              gdsnoi=-1.23457e-29         
         using Hspice diodes            using ACM 
         acm=         0                 hdif=         0 meter    
        ldif=         0 meter             js=         0 amp/m^2  
         jsw=         0 amp/m            xti=         0          
           n=         1                   cj=0.00191866 f/m^2    
          mj=  0.472173                   pb=  0.978405 V        
        cjsw=4.44159e-10 f/m             mjsw=  0.287112          
         php=  0.978405 V               pbsw (not used)           
      cjgate=4.44159e-10 f/m            cjswg (not used)           
       mjswg (not used)                 pbswg (not used)           
       lketa=-0.00614406               wketa=0.000751269         
       pvth0= 0.00134299                 pk2=-0.00314072         
       prdsw=   -61.8357         
 ***************************************************************************
 ***        model parameters  model name:   0:tsmc25dp model type:pmos   ***
 ***************************************************************************

   *** general parameters ***
    deriv=   0.           

   ***  level 49  model parameters  ***

      hspver=    2006.03               level=         49         
     version=        3.1            paramchk=          0         
      apwarn=          1                lite=          0         
      vgslim=          0             binUnit=          1         
      capMod=          2               xpart=        0.4         
      mobMod=          1              nqsMod=          0         
      stiMod=          0                 elm=          5         
    sfvtflag=          0                 tox=    5.8e-09 meter   
          xj=      1e-07 meter       binflag=          0         
        lmin=          0 meter          lmax=          0 meter   
        wmin=          0 meter          wmax=          0 meter   
        lref=          0 meter          wref=          0 meter   
        lint=8.71907e-09 meter          wint=2.74881e-08 meter   
       lmult=          1               wmult=          1         
          ll=          0                 lln=          1         
          lw=          0                 lwn=          1         
         lwl=          0                  wl=          0         
         wln=          1                  ww=          0         
         wwn=          1                 wwl=          0         
         dwg=-4.08759e-08 m/V             dwb=2.03201e-08 m/V^1/2 
          xl=     -3e-08                  xw=          0         
          a0=    1.38264                 ags=   0.419298 V^-1    
          b0= 2.8441e-06 meter            b1=      5e-06 meter   
        keta=  0.0208695 V^-1           voff=      -0.15 V       
       ngate=          0 cm^-3           vbx=          0 V       
         vbm=         -3 V                xt=   1.55e-07 meter   
        vth0=  -0.615873 V               nch= 4.1589e+17 cm^-3   
        nsub=      6e+16 cm^-3           nlx=      1e-09 meter   
      gamma1=          0 V^-1/2       gamma2=          0 V^-1/2  
          k1=   0.459838 V^1/2            k2=  0.0399415         
          k3=          0                 k3b=    8.74107 V^-1    
          w0=      1e-06 meter          dvt0=   0.624949         
        dvt1=   0.203296                dvt2= -0.0513763 V^-1    
       dvt0w=          0 meter^-1      dvt1w=          0 meter^-1
       dvt2w=          0 V^-1           dsub=    1.02871         
        eta0=   0.324124                etab=    -0.1842 V^-1    
          u0=    158.675 cm^2/V/sec         ua=2.20002e-10 m/V     
          ub=4.45742e-18 (m/V)^2          uc=1.02138e-10 V^-1    
        vsat=     185064 m/sec            a1=          0 v^-1    
          a2=          1               delta=       0.01 V       
        rdsw=    968.546 ohm-um         prwg=  -0.102648 V^-1    
        prwb=     -0.325 V^-1/2           wr=          1         
        pclm=    5.26546             pdiblc1= 0.00422834         
     pdiblc2= 0.00120452             pdiblcb= 0.00237525 V^-1    
      pscbe1=3.01146e+10 V/m          pscbe2=3.03704e-07 V/m     
       drout=          0                pvag=    8.95643         
     nfactor=    1.54605                cdsc=0.000141332 f/m^2   
       cdscb=          0 f/V/m^2       cdscd=          0 f/V/m^2 
         cit=          0 f/m^2        alpha0=          0 m/V     
       beta0=         30 V               dlc=8.71907e-09 meter   
         dwc=2.74881e-08 meter           clc=      1e-07 meter   
         cle=        0.6                cgso=   5.59e-10 f/m     
        cgdo=   5.59e-10 f/m            cgbo=          0 f/m     
        cgsl=          0 f/m            cgdl=          0 f/m     
      ckappa=        0.6                  cf=9.33852e-11 f/m     
        tnom=     300.15 K               kt1=      -0.11 V       
        kt1l=          0                 kt2=      0.022         
         ute=       -1.5                 ua1=   4.31e-09 m/V     
         ub1=  -7.61e-18 (m/V)^2         uc1=   -5.6e-11 m/V^2   
          at=      33000 m/s             prt=          0         
         using Berkeley noise model       noiMod=          1         
        noia=    9.9e+18                noib=       2400         
        noic=    1.4e-12                  em=    4.1e+07         
          ef=          1                  af=          1         
          kf=          0              gdsnoi=-1.23457e-29         
         using Hspice diodes            using ACM 
         acm=         0                 hdif=         0 meter    
        ldif=         0 meter             js=         0 amp/m^2  
         jsw=         0 amp/m            xti=         0          
           n=         1                   cj=0.00188286 f/m^2    
          mj=  0.467979                   pb=  0.989132 V        
        cjsw=3.67186e-10 f/m             mjsw=  0.356213          
         php=  0.989132 V               pbsw (not used)           
      cjgate=3.67186e-10 f/m            cjswg (not used)           
       mjswg (not used)                 pbswg (not used)           
       lketa= -0.0232426               lvsat=     125700         
       wketa= 0.00410049               pvth0= 0.00392376         
         pk2= 0.00206176               prdsw=    15.3953         
  **info** (sim_deck:28) DC voltage reset to initial transient source value              in source        0:v0                  new dc=  0.0000D+00
  **warning** (sim_deck:4) Both nodes of element vgnd are connected together; Line ignored.
 

1****** HSPICE -- F-2011.09-SP2 32-BIT (Feb 27 2012) linux ******               
 ******  
 * 'sup' is a variable you set to adjust the supply voltage

  ******  circuit element summary tnom=  25.000 temp=  25.000 *****


 **** resistors

  
  
                                                                  
 element name        0:r48       0:r47       0:r46       0:r45    
 node1               0:wl1       0:net338    0:net340    0:net342 
 node2               0:net335    0:rd0       0:net440    0:net438 
 model                                                            
 res eff            72.0000     48.0000     48.0000     48.0000   
 tc1                 0.          0.          0.          0.       
 tc2                 0.          0.          0.          0.       
 scale               1.0000      1.0000      1.0000      1.0000   
 m                   1.0000      1.0000      1.0000      1.0000   
 ac                 72.0000     48.0000     48.0000     48.0000   
 temp               25.0000     25.0000     25.0000     25.0000   
 l                   0.          0.          0.          0.       
 w                   0.          0.          0.          0.       
 cap                 0.          0.          0.          0.       
 noise               1.0000      1.0000      1.0000      1.0000   
  
  
                                                                  
 element name        0:r44       0:r43       0:r42       0:r41    
 node1               0:net344    0:net346    0:net348    0:net350 
 node2               0:rd1       0:rd2       0:net442    0:net462 
 model                                                            
 res eff            48.0000     48.0000     48.0000     48.0000   
 tc1                 0.          0.          0.          0.       
 tc2                 0.          0.          0.          0.       
 scale               1.0000      1.0000      1.0000      1.0000   
 m                   1.0000      1.0000      1.0000      1.0000   
 ac                 48.0000     48.0000     48.0000     48.0000   
 temp               25.0000     25.0000     25.0000     25.0000   
 l                   0.          0.          0.          0.       
 w                   0.          0.          0.          0.       
 cap                 0.          0.          0.          0.       
 noise               1.0000      1.0000      1.0000      1.0000   
  
  
                                                                  
 element name        0:r40       0:r39       0:r38       0:r37    
 node1               0:net352    0:net354    0:net356    0:net358 
 node2               0:rd3       0:rd4       0:net446    0:net444 
 model                                                            
 res eff            48.0000     48.0000     48.0000     48.0000   
 tc1                 0.          0.          0.          0.       
 tc2                 0.          0.          0.          0.       
 scale               1.0000      1.0000      1.0000      1.0000   
 m                   1.0000      1.0000      1.0000      1.0000   
 ac                 48.0000     48.0000     48.0000     48.0000   
 temp               25.0000     25.0000     25.0000     25.0000   
 l                   0.          0.          0.          0.       
 w                   0.          0.          0.          0.       
 cap                 0.          0.          0.          0.       
 noise               1.0000      1.0000      1.0000      1.0000   
  
  
                                                                  
 element name        0:r36       0:r35       0:r34       0:r33    
 node1               0:net360    0:net362    0:net364    0:net366 
 node2               0:rd5       0:rd6       0:net434    0:net436 
 model                                                            
 res eff            48.0000     48.0000     48.0000     48.0000   
 tc1                 0.          0.          0.          0.       
 tc2                 0.          0.          0.          0.       
 scale               1.0000      1.0000      1.0000      1.0000   
 m                   1.0000      1.0000      1.0000      1.0000   
 ac                 48.0000     48.0000     48.0000     48.0000   
 temp               25.0000     25.0000     25.0000     25.0000   
 l                   0.          0.          0.          0.       
 w                   0.          0.          0.          0.       
 cap                 0.          0.          0.          0.       
 noise               1.0000      1.0000      1.0000      1.0000   
  
  
                                                                  
 element name        0:r32       0:r31       0:r30       0:r29    
 node1               0:net368    0:net370    0:net372    0:net374 
 node2               0:rd7       0:rd8       0:net432    0:net450 
 model                                                            
 res eff            48.0000     48.0000     48.0000     48.0000   
 tc1                 0.          0.          0.          0.       
 tc2                 0.          0.          0.          0.       
 scale               1.0000      1.0000      1.0000      1.0000   
 m                   1.0000      1.0000      1.0000      1.0000   
 ac                 48.0000     48.0000     48.0000     48.0000   
 temp               25.0000     25.0000     25.0000     25.0000   
 l                   0.          0.          0.          0.       
 w                   0.          0.          0.          0.       
 cap                 0.          0.          0.          0.       
 noise               1.0000      1.0000      1.0000      1.0000   
  
  
                                                                  
 element name        0:r28       0:r27       0:r26       0:r25    
 node1               0:net376    0:net378    0:net380    0:net382 
 node2               0:rd9       0:rd10      0:net458    0:net456 
 model                                                            
 res eff            48.0000     48.0000     48.0000     48.0000   
 tc1                 0.          0.          0.          0.       
 tc2                 0.          0.          0.          0.       
 scale               1.0000      1.0000      1.0000      1.0000   
 m                   1.0000      1.0000      1.0000      1.0000   
 ac                 48.0000     48.0000     48.0000     48.0000   
 temp               25.0000     25.0000     25.0000     25.0000   
 l                   0.          0.          0.          0.       
 w                   0.          0.          0.          0.       
 cap                 0.          0.          0.          0.       
 noise               1.0000      1.0000      1.0000      1.0000   
  
  
                                                                  
 element name        0:r24       0:r23       0:r22       0:r21    
 node1               0:net384    0:net386    0:net388    0:net390 
 node2               0:rd11      0:rd12      0:net460    0:net452 
 model                                                            
 res eff            48.0000     48.0000     48.0000     48.0000   
 tc1                 0.          0.          0.          0.       
 tc2                 0.          0.          0.          0.       
 scale               1.0000      1.0000      1.0000      1.0000   
 m                   1.0000      1.0000      1.0000      1.0000   
 ac                 48.0000     48.0000     48.0000     48.0000   
 temp               25.0000     25.0000     25.0000     25.0000   
 l                   0.          0.          0.          0.       
 w                   0.          0.          0.          0.       
 cap                 0.          0.          0.          0.       
 noise               1.0000      1.0000      1.0000      1.0000   
  
  
                                                                  
 element name        0:r20       0:r19       0:r18       0:r17    
 node1               0:net392    0:net394    0:net396    0:net398 
 node2               0:rd13      0:rd14      0:net454    0:net448 
 model                                                            
 res eff            48.0000     48.0000     48.0000     48.0000   
 tc1                 0.          0.          0.          0.       
 tc2                 0.          0.          0.          0.       
 scale               1.0000      1.0000      1.0000      1.0000   
 m                   1.0000      1.0000      1.0000      1.0000   
 ac                 48.0000     48.0000     48.0000     48.0000   
 temp               25.0000     25.0000     25.0000     25.0000   
 l                   0.          0.          0.          0.       
 w                   0.          0.          0.          0.       
 cap                 0.          0.          0.          0.       
 noise               1.0000      1.0000      1.0000      1.0000   
  
  
                                                                  
 element name        0:r15       0:r1        0:r2        0:r3     
 node1               0:net400    0:wl2       0:wl3       0:wl4    
 node2               0:rd15      0:net401    0:net403    0:net405 
 model                                                            
 res eff            48.0000     72.0000     72.0000     72.0000   
 tc1                 0.          0.          0.          0.       
 tc2                 0.          0.          0.          0.       
 scale               1.0000      1.0000      1.0000      1.0000   
 m                   1.0000      1.0000      1.0000      1.0000   
 ac                 48.0000     72.0000     72.0000     72.0000   
 temp               25.0000     25.0000     25.0000     25.0000   
 l                   0.          0.          0.          0.       
 w                   0.          0.          0.          0.       
 cap                 0.          0.          0.          0.       
 noise               1.0000      1.0000      1.0000      1.0000   
  
  
                                                                  
 element name        0:r4        0:r5        0:r0        0:r6     
 node1               0:wl5       0:wl6       0:wl0       0:wl7    
 node2               0:net407    0:net409    0:net411    0:net413 
 model                                                            
 res eff            72.0000     72.0000     72.0000     72.0000   
 tc1                 0.          0.          0.          0.       
 tc2                 0.          0.          0.          0.       
 scale               1.0000      1.0000      1.0000      1.0000   
 m                   1.0000      1.0000      1.0000      1.0000   
 ac                 72.0000     72.0000     72.0000     72.0000   
 temp               25.0000     25.0000     25.0000     25.0000   
 l                   0.          0.          0.          0.       
 w                   0.          0.          0.          0.       
 cap                 0.          0.          0.          0.       
 noise               1.0000      1.0000      1.0000      1.0000   
  
  
                                                                  
 element name        0:r7        0:r8        0:r9        0:r10    
 node1               0:wl8       0:wl9       0:wl10      0:wl11   
 node2               0:net415    0:net417    0:net419    0:net421 
 model                                                            
 res eff            72.0000     72.0000     72.0000     72.0000   
 tc1                 0.          0.          0.          0.       
 tc2                 0.          0.          0.          0.       
 scale               1.0000      1.0000      1.0000      1.0000   
 m                   1.0000      1.0000      1.0000      1.0000   
 ac                 72.0000     72.0000     72.0000     72.0000   
 temp               25.0000     25.0000     25.0000     25.0000   
 l                   0.          0.          0.          0.       
 w                   0.          0.          0.          0.       
 cap                 0.          0.          0.          0.       
 noise               1.0000      1.0000      1.0000      1.0000   
  
  
                                                                  
 element name        0:r11       0:r12       0:r13       0:r14    
 node1               0:wl12      0:wl13      0:wl14      0:wl15   
 node2               0:net423    0:net425    0:net427    0:net429 
 model                                                            
 res eff            72.0000     72.0000     72.0000     72.0000   
 tc1                 0.          0.          0.          0.       
 tc2                 0.          0.          0.          0.       
 scale               1.0000      1.0000      1.0000      1.0000   
 m                   1.0000      1.0000      1.0000      1.0000   
 ac                 72.0000     72.0000     72.0000     72.0000   
 temp               25.0000     25.0000     25.0000     25.0000   
 l                   0.          0.          0.          0.       
 w                   0.          0.          0.          0.       
 cap                 0.          0.          0.          0.       
 noise               1.0000      1.0000      1.0000      1.0000   


 **** capacitors
  
  
                                                                
 element name        0:c97      0:c96       0:c95       0:c94   
 node1               0:wl1      0:net335    0:net338    0:rd0   
 node2               0:0        0:0         0:0         0:0     
 model                                                          
 cap eff            23.7000f   23.7000f    15.8000f    15.8000f 
 tc1                 0.         0.          0.          0.      
 tc2                 0.         0.          0.          0.      
 scale               1.0000     1.0000      1.0000      1.0000  
 ic                  0.         0.          0.          0.      
 m                   1.0000     1.0000      1.0000      1.0000  
 w                   0.         0.          0.          0.      
 l                   0.         0.          0.          0.      
 temp               25.0000    25.0000     25.0000     25.0000  
  
  
                                                                  
 element name        0:c93       0:c92       0:c91       0:c90    
 node1               0:net440    0:net340    0:net342    0:net438 
 node2               0:0         0:0         0:0         0:0      
 model                                                            
 cap eff            15.8000f    15.8000f    15.8000f    15.8000f  
 tc1                 0.          0.          0.          0.       
 tc2                 0.          0.          0.          0.       
 scale               1.0000      1.0000      1.0000      1.0000   
 ic                  0.          0.          0.          0.       
 m                   1.0000      1.0000      1.0000      1.0000   
 w                   0.          0.          0.          0.       
 l                   0.          0.          0.          0.       
 temp               25.0000     25.0000     25.0000     25.0000   
  
  
                                                                
 element name        0:c89      0:c88       0:c87       0:c86   
 node1               0:rd1      0:net344    0:net346    0:rd2   
 node2               0:0        0:0         0:0         0:0     
 model                                                          
 cap eff            15.8000f   15.8000f    15.8000f    15.8000f 
 tc1                 0.         0.          0.          0.      
 tc2                 0.         0.          0.          0.      
 scale               1.0000     1.0000      1.0000      1.0000  
 ic                  0.         0.          0.          0.      
 m                   1.0000     1.0000      1.0000      1.0000  
 w                   0.         0.          0.          0.      
 l                   0.         0.          0.          0.      
 temp               25.0000    25.0000     25.0000     25.0000  
  
  
                                                                  
 element name        0:c85       0:c84       0:c83       0:c82    
 node1               0:net442    0:net348    0:net350    0:net462 
 node2               0:0         0:0         0:0         0:0      
 model                                                            
 cap eff            15.8000f    15.8000f    15.8000f    15.8000f  
 tc1                 0.          0.          0.          0.       
 tc2                 0.          0.          0.          0.       
 scale               1.0000      1.0000      1.0000      1.0000   
 ic                  0.          0.          0.          0.       
 m                   1.0000      1.0000      1.0000      1.0000   
 w                   0.          0.          0.          0.       
 l                   0.          0.          0.          0.       
 temp               25.0000     25.0000     25.0000     25.0000   
  
  
                                                                
 element name        0:c81      0:c80       0:c79       0:c78   
 node1               0:rd3      0:net352    0:net354    0:rd4   
 node2               0:0        0:0         0:0         0:0     
 model                                                          
 cap eff            15.8000f   15.8000f    15.8000f    15.8000f 
 tc1                 0.         0.          0.          0.      
 tc2                 0.         0.          0.          0.      
 scale               1.0000     1.0000      1.0000      1.0000  
 ic                  0.         0.          0.          0.      
 m                   1.0000     1.0000      1.0000      1.0000  
 w                   0.         0.          0.          0.      
 l                   0.         0.          0.          0.      
 temp               25.0000    25.0000     25.0000     25.0000  
  
  
                                                                  
 element name        0:c77       0:c76       0:c75       0:c74    
 node1               0:net446    0:net356    0:net358    0:net444 
 node2               0:0         0:0         0:0         0:0      
 model                                                            
 cap eff            15.8000f    15.8000f    15.8000f    15.8000f  
 tc1                 0.          0.          0.          0.       
 tc2                 0.          0.          0.          0.       
 scale               1.0000      1.0000      1.0000      1.0000   
 ic                  0.          0.          0.          0.       
 m                   1.0000      1.0000      1.0000      1.0000   
 w                   0.          0.          0.          0.       
 l                   0.          0.          0.          0.       
 temp               25.0000     25.0000     25.0000     25.0000   
  
  
                                                                
 element name        0:c73      0:c72       0:c71       0:c70   
 node1               0:rd5      0:net360    0:net362    0:rd6   
 node2               0:0        0:0         0:0         0:0     
 model                                                          
 cap eff            15.8000f   15.8000f    15.8000f    15.8000f 
 tc1                 0.         0.          0.          0.      
 tc2                 0.         0.          0.          0.      
 scale               1.0000     1.0000      1.0000      1.0000  
 ic                  0.         0.          0.          0.      
 m                   1.0000     1.0000      1.0000      1.0000  
 w                   0.         0.          0.          0.      
 l                   0.         0.          0.          0.      
 temp               25.0000    25.0000     25.0000     25.0000  
  
  
                                                                  
 element name        0:c69       0:c68       0:c67       0:c66    
 node1               0:net434    0:net364    0:net366    0:net436 
 node2               0:0         0:0         0:0         0:0      
 model                                                            
 cap eff            15.8000f    15.8000f    15.8000f    15.8000f  
 tc1                 0.          0.          0.          0.       
 tc2                 0.          0.          0.          0.       
 scale               1.0000      1.0000      1.0000      1.0000   
 ic                  0.          0.          0.          0.       
 m                   1.0000      1.0000      1.0000      1.0000   
 w                   0.          0.          0.          0.       
 l                   0.          0.          0.          0.       
 temp               25.0000     25.0000     25.0000     25.0000   
  
  
                                                                
 element name        0:c65      0:c64       0:c63       0:c62   
 node1               0:rd7      0:net368    0:net370    0:rd8   
 node2               0:0        0:0         0:0         0:0     
 model                                                          
 cap eff            15.8000f   15.8000f    15.8000f    15.8000f 
 tc1                 0.         0.          0.          0.      
 tc2                 0.         0.          0.          0.      
 scale               1.0000     1.0000      1.0000      1.0000  
 ic                  0.         0.          0.          0.      
 m                   1.0000     1.0000      1.0000      1.0000  
 w                   0.         0.          0.          0.      
 l                   0.         0.          0.          0.      
 temp               25.0000    25.0000     25.0000     25.0000  
  
  
                                                                  
 element name        0:c61       0:c60       0:c59       0:c58    
 node1               0:net432    0:net372    0:net374    0:net450 
 node2               0:0         0:0         0:0         0:0      
 model                                                            
 cap eff            15.8000f    15.8000f    15.8000f    15.8000f  
 tc1                 0.          0.          0.          0.       
 tc2                 0.          0.          0.          0.       
 scale               1.0000      1.0000      1.0000      1.0000   
 ic                  0.          0.          0.          0.       
 m                   1.0000      1.0000      1.0000      1.0000   
 w                   0.          0.          0.          0.       
 l                   0.          0.          0.          0.       
 temp               25.0000     25.0000     25.0000     25.0000   
  
  
                                                                
 element name        0:c57      0:c56       0:c55       0:c54   
 node1               0:rd9      0:net376    0:net378    0:rd10  
 node2               0:0        0:0         0:0         0:0     
 model                                                          
 cap eff            15.8000f   15.8000f    15.8000f    15.8000f 
 tc1                 0.         0.          0.          0.      
 tc2                 0.         0.          0.          0.      
 scale               1.0000     1.0000      1.0000      1.0000  
 ic                  0.         0.          0.          0.      
 m                   1.0000     1.0000      1.0000      1.0000  
 w                   0.         0.          0.          0.      
 l                   0.         0.          0.          0.      
 temp               25.0000    25.0000     25.0000     25.0000  
  
  
                                                                  
 element name        0:c53       0:c52       0:c51       0:c50    
 node1               0:net458    0:net380    0:net382    0:net456 
 node2               0:0         0:0         0:0         0:0      
 model                                                            
 cap eff            15.8000f    15.8000f    15.8000f    15.8000f  
 tc1                 0.          0.          0.          0.       
 tc2                 0.          0.          0.          0.       
 scale               1.0000      1.0000      1.0000      1.0000   
 ic                  0.          0.          0.          0.       
 m                   1.0000      1.0000      1.0000      1.0000   
 w                   0.          0.          0.          0.       
 l                   0.          0.          0.          0.       
 temp               25.0000     25.0000     25.0000     25.0000   
  
  
                                                                
 element name        0:c49      0:c48       0:c47       0:c46   
 node1               0:rd11     0:net384    0:net386    0:rd12  
 node2               0:0        0:0         0:0         0:0     
 model                                                          
 cap eff            15.8000f   15.8000f    15.8000f    15.8000f 
 tc1                 0.         0.          0.          0.      
 tc2                 0.         0.          0.          0.      
 scale               1.0000     1.0000      1.0000      1.0000  
 ic                  0.         0.          0.          0.      
 m                   1.0000     1.0000      1.0000      1.0000  
 w                   0.         0.          0.          0.      
 l                   0.         0.          0.          0.      
 temp               25.0000    25.0000     25.0000     25.0000  
  
  
                                                                  
 element name        0:c45       0:c44       0:c43       0:c42    
 node1               0:net460    0:net388    0:net390    0:net452 
 node2               0:0         0:0         0:0         0:0      
 model                                                            
 cap eff            15.8000f    15.8000f    15.8000f    15.8000f  
 tc1                 0.          0.          0.          0.       
 tc2                 0.          0.          0.          0.       
 scale               1.0000      1.0000      1.0000      1.0000   
 ic                  0.          0.          0.          0.       
 m                   1.0000      1.0000      1.0000      1.0000   
 w                   0.          0.          0.          0.       
 l                   0.          0.          0.          0.       
 temp               25.0000     25.0000     25.0000     25.0000   
  
  
                                                                
 element name        0:c41      0:c40       0:c39       0:c38   
 node1               0:rd13     0:net392    0:net394    0:rd14  
 node2               0:0        0:0         0:0         0:0     
 model                                                          
 cap eff            15.8000f   15.8000f    15.8000f    15.8000f 
 tc1                 0.         0.          0.          0.      
 tc2                 0.         0.          0.          0.      
 scale               1.0000     1.0000      1.0000      1.0000  
 ic                  0.         0.          0.          0.      
 m                   1.0000     1.0000      1.0000      1.0000  
 w                   0.         0.          0.          0.      
 l                   0.         0.          0.          0.      
 temp               25.0000    25.0000     25.0000     25.0000  
  
  
                                                                  
 element name        0:c37       0:c36       0:c35       0:c34    
 node1               0:net454    0:net396    0:net398    0:net448 
 node2               0:0         0:0         0:0         0:0      
 model                                                            
 cap eff            15.8000f    15.8000f    15.8000f    15.8000f  
 tc1                 0.          0.          0.          0.       
 tc2                 0.          0.          0.          0.       
 scale               1.0000      1.0000      1.0000      1.0000   
 ic                  0.          0.          0.          0.       
 m                   1.0000      1.0000      1.0000      1.0000   
 w                   0.          0.          0.          0.       
 l                   0.          0.          0.          0.       
 temp               25.0000     25.0000     25.0000     25.0000   
  
  
                                                                
 element name        0:c31      0:c30       0:c2        0:c3    
 node1               0:rd15     0:net400    0:net401    0:wl2   
 node2               0:0        0:0         0:0         0:0     
 model                                                          
 cap eff            15.8000f   15.8000f    23.7000f    23.7000f 
 tc1                 0.         0.          0.          0.      
 tc2                 0.         0.          0.          0.      
 scale               1.0000     1.0000      1.0000      1.0000  
 ic                  0.         0.          0.          0.      
 m                   1.0000     1.0000      1.0000      1.0000  
 w                   0.         0.          0.          0.      
 l                   0.         0.          0.          0.      
 temp               25.0000    25.0000     25.0000     25.0000  
  
  
                                                                 
 element name        0:c4       0:c5        0:c1        0:c6     
 node1               0:wl3      0:net403    0:net411    0:net405 
 node2               0:0        0:0         0:0         0:0      
 model                                                           
 cap eff            23.7000f   23.7000f    23.7000f    23.7000f  
 tc1                 0.         0.          0.          0.       
 tc2                 0.         0.          0.          0.       
 scale               1.0000     1.0000      1.0000      1.0000   
 ic                  0.         0.          0.          0.       
 m                   1.0000     1.0000      1.0000      1.0000   
 w                   0.         0.          0.          0.       
 l                   0.         0.          0.          0.       
 temp               25.0000    25.0000     25.0000     25.0000   
  
  
                                                               
 element name        0:c7       0:c8       0:c9        0:c0    
 node1               0:wl4      0:wl5      0:net407    0:wl0   
 node2               0:0        0:0        0:0         0:0     
 model                                                         
 cap eff            23.7000f   23.7000f   23.7000f    23.7000f 
 tc1                 0.         0.         0.          0.      
 tc2                 0.         0.         0.          0.      
 scale               1.0000     1.0000     1.0000      1.0000  
 ic                  0.         0.         0.          0.      
 m                   1.0000     1.0000     1.0000      1.0000  
 w                   0.         0.         0.          0.      
 l                   0.         0.         0.          0.      
 temp               25.0000    25.0000    25.0000     25.0000  
  
  
                                                                
 element name        0:c10      0:c11       0:c12       0:c13   
 node1               0:wl6      0:net409    0:net413    0:wl7   
 node2               0:0        0:0         0:0         0:0     
 model                                                          
 cap eff            23.7000f   23.7000f    23.7000f    23.7000f 
 tc1                 0.         0.          0.          0.      
 tc2                 0.         0.          0.          0.      
 scale               1.0000     1.0000      1.0000      1.0000  
 ic                  0.         0.          0.          0.      
 m                   1.0000     1.0000      1.0000      1.0000  
 w                   0.         0.          0.          0.      
 l                   0.         0.          0.          0.      
 temp               25.0000    25.0000     25.0000     25.0000  
  
  
                                                                
 element name        0:c14      0:c15       0:c16       0:c17   
 node1               0:wl8      0:net415    0:net417    0:wl9   
 node2               0:0        0:0         0:0         0:0     
 model                                                          
 cap eff            23.7000f   23.7000f    23.7000f    23.7000f 
 tc1                 0.         0.          0.          0.      
 tc2                 0.         0.          0.          0.      
 scale               1.0000     1.0000      1.0000      1.0000  
 ic                  0.         0.          0.          0.      
 m                   1.0000     1.0000      1.0000      1.0000  
 w                   0.         0.          0.          0.      
 l                   0.         0.          0.          0.      
 temp               25.0000    25.0000     25.0000     25.0000  
  
  
                                                                
 element name        0:c18      0:c19       0:c20       0:c21   
 node1               0:wl10     0:net419    0:net421    0:wl11  
 node2               0:0        0:0         0:0         0:0     
 model                                                          
 cap eff            23.7000f   23.7000f    23.7000f    23.7000f 
 tc1                 0.         0.          0.          0.      
 tc2                 0.         0.          0.          0.      
 scale               1.0000     1.0000      1.0000      1.0000  
 ic                  0.         0.          0.          0.      
 m                   1.0000     1.0000      1.0000      1.0000  
 w                   0.         0.          0.          0.      
 l                   0.         0.          0.          0.      
 temp               25.0000    25.0000     25.0000     25.0000  
  
  
                                                                
 element name        0:c22      0:c23       0:c24       0:c25   
 node1               0:wl12     0:net423    0:net425    0:wl13  
 node2               0:0        0:0         0:0         0:0     
 model                                                          
 cap eff            23.7000f   23.7000f    23.7000f    23.7000f 
 tc1                 0.         0.          0.          0.      
 tc2                 0.         0.          0.          0.      
 scale               1.0000     1.0000      1.0000      1.0000  
 ic                  0.         0.          0.          0.      
 m                   1.0000     1.0000      1.0000      1.0000  
 w                   0.         0.          0.          0.      
 l                   0.         0.          0.          0.      
 temp               25.0000    25.0000     25.0000     25.0000  
  
  
                                                                
 element name        0:c26      0:c27       0:c28       0:c29   
 node1               0:wl14     0:net427    0:net429    0:wl15  
 node2               0:0        0:0         0:0         0:0     
 model                                                          
 cap eff            23.7000f   23.7000f    23.7000f    23.7000f 
 tc1                 0.         0.          0.          0.      
 tc2                 0.         0.          0.          0.      
 scale               1.0000     1.0000      1.0000      1.0000  
 ic                  0.         0.          0.          0.      
 m                   1.0000     1.0000      1.0000      1.0000  
 w                   0.         0.          0.          0.      
 l                   0.         0.          0.          0.      
 temp               25.0000    25.0000     25.0000     25.0000  


 **** independent sources

     name         node1        node2      dc volt    ac mag    ac phase    type
  v0  wr0               0                    0.         0.         0.      pulse
             initial value     0.     
             pulsed value.     2.5000 
             delay time...    20.0000n
             risetime.....   200.0000p
             falltime.....   200.0000p
             width........    70.0000n
             period.......   120.0000n

  v1  wr1               0                    0.         0.         0.      pulse
             initial value     0.     
             pulsed value.     2.5000 
             delay time...    20.0000n
             risetime.....   200.0000p
             falltime.....   200.0000p
             width........    70.0000n
             period.......   120.0000n

  v10  wr10              0                    0.         0.         0.      pulse
             initial value     0.     
             pulsed value.     2.5000 
             delay time...    20.0000n
             risetime.....   200.0000p
             falltime.....   200.0000p
             width........    30.0000n
             period.......   120.0000n

  v11  wr11              0                    0.         0.         0.      pulse
             initial value     0.     
             pulsed value.     2.5000 
             delay time...    20.0000n
             risetime.....   200.0000p
             falltime.....   200.0000p
             width........    30.0000n
             period.......   120.0000n

  v12  wr12              0                    0.         0.         0.      pulse
             initial value     0.     
             pulsed value.     2.5000 
             delay time...    20.0000n
             risetime.....   200.0000p
             falltime.....   200.0000p
             width........    30.0000n
             period.......   120.0000n

  v13  wr13              0                    0.         0.         0.      pulse
             initial value     0.     
             pulsed value.     2.5000 
             delay time...    20.0000n
             risetime.....   200.0000p
             falltime.....   200.0000p
             width........    30.0000n
             period.......   120.0000n

  v14  wr14              0                    0.         0.         0.      pulse
             initial value     0.     
             pulsed value.     2.5000 
             delay time...    20.0000n
             risetime.....   200.0000p
             falltime.....   200.0000p
             width........    30.0000n
             period.......   120.0000n

  v15  wr15              0                    0.         0.         0.      pulse
             initial value     0.     
             pulsed value.     2.5000 
             delay time...    20.0000n
             risetime.....   200.0000p
             falltime.....   200.0000p
             width........    30.0000n
             period.......   120.0000n

  v2  wr2               0                    0.         0.         0.      pulse
             initial value     0.     
             pulsed value.     2.5000 
             delay time...    20.0000n
             risetime.....   200.0000p
             falltime.....   200.0000p
             width........    30.0000n
             period.......   120.0000n

  v3  wr3               0                    0.         0.         0.      pulse
             initial value     0.     
             pulsed value.     2.5000 
             delay time...    20.0000n
             risetime.....   200.0000p
             falltime.....   200.0000p
             width........    30.0000n
             period.......   120.0000n

  v4  wr4               0                    0.         0.         0.      pulse
             initial value     0.     
             pulsed value.     2.5000 
             delay time...    20.0000n
             risetime.....   200.0000p
             falltime.....   200.0000p
             width........    30.0000n
             period.......   120.0000n

  v5  wr5               0                    0.         0.         0.      pulse
             initial value     0.     
             pulsed value.     2.5000 
             delay time...    20.0000n
             risetime.....   200.0000p
             falltime.....   200.0000p
             width........    30.0000n
             period.......   120.0000n

  v6  wr6               0                    0.         0.         0.      pulse
             initial value     0.     
             pulsed value.     2.5000 
             delay time...    20.0000n
             risetime.....   200.0000p
             falltime.....   200.0000p
             width........    30.0000n
             period.......   120.0000n

  v7  wr7               0                    0.         0.         0.      pulse
             initial value     0.     
             pulsed value.     2.5000 
             delay time...    20.0000n
             risetime.....   200.0000p
             falltime.....   200.0000p
             width........    30.0000n
             period.......   120.0000n

  v8  wr8               0                    0.         0.         0.      pulse
             initial value     0.     
             pulsed value.     2.5000 
             delay time...    20.0000n
             risetime.....   200.0000p
             falltime.....   200.0000p
             width........    30.0000n
             period.......   120.0000n

  v9  wr9               0                    0.         0.         0.      pulse
             initial value     0.     
             pulsed value.     2.5000 
             delay time...    20.0000n
             risetime.....   200.0000p
             falltime.....   200.0000p
             width........    30.0000n
             period.......   120.0000n

  v_en  wr_en             0                    0.         0.         0.      pulse
             initial value     0.     
             pulsed value.     2.5000 
             delay time...    20.0000n
             risetime.....   200.0000p
             falltime.....   200.0000p
             width........    50.0000n
             period.......   120.0000n

  va0  a0                0                    0.         0.         0.      pulse
             initial value     0.     
             pulsed value.     2.5000 
             delay time...    40.0000n
             risetime.....   200.0000p
             falltime.....   200.0000p
             width........    40.0000n
             period.......   120.0000n

  va1  a1                0                    0.         0.         0.      pulse
             initial value     0.     
             pulsed value.     2.5000 
             delay time...    40.0000n
             risetime.....   200.0000p
             falltime.....   200.0000p
             width........    40.0000n
             period.......   120.0000n

  va2  a2                0                    0.         0.         0.      pulse
             initial value     0.     
             pulsed value.     2.5000 
             delay time...    40.0000n
[...]
 +  0:wl7     =  20.7177n   0:wl8     =  20.7178n   0:wl9     =  20.7177n
 +  0:wr0     =   0.        0:wr1     =   0.        0:wr10    =   0.     
 +  0:wr11    =   0.        0:wr12    =   0.        0:wr13    =   0.     
 +  0:wr14    =   0.        0:wr15    =   0.        0:wr2     =   0.     
 +  0:wr3     =   0.        0:wr4     =   0.        0:wr5     =   0.     
 +  0:wr6     =   0.        0:wr7     =   0.        0:wr8     =   0.     
 +  0:wr9     =   0.        0:wr_en   =   0.       17:1       =   2.5000 
 + 17:net10   =  26.2648n  17:net21   =   2.4702   17:net6    =   2.5000 
 + 18:1       =   2.5000   18:net10   =  11.5224n  18:net21   =   2.4540 
 + 18:net6    =   2.5000   19:1       =   2.5000   19:net10   =  11.5224n
 + 19:net21   =   2.4540   19:net6    =   2.5000   20:1       =   2.5000 
 + 20:net10   =  26.2648n  20:net21   =   2.4702   20:net6    =   2.5000 
 + 21:1       =   2.5000   21:net10   =  26.2648n  21:net21   =   2.4702 
 + 21:net6    =   2.5000   22:1       =   2.5000   22:net10   =  11.5224n
 + 22:net21   =   2.4540   22:net6    =   2.5000   23:1       =   2.5000 
 + 23:net10   =  11.5224n  23:net21   =   2.4540   23:net6    =   2.5000 
 + 24:1       =   2.5000   24:net10   =  26.2648n  24:net21   =   2.4702 
 + 24:net6    =   2.5000   25:1       =   2.5000   25:net10   =  26.2648n
 + 25:net21   =   2.4702   25:net6    =   2.5000   26:1       =   2.5000 
 + 26:net10   =  11.5224n  26:net21   =   2.4540   26:net6    =   2.5000 
 + 27:1       =   2.5000   27:net10   =  11.5224n  27:net21   =   2.4540 
 + 27:net6    =   2.5000   28:1       =   2.5000   28:net10   =  26.2648n
 + 28:net21   =   2.4702   28:net6    =   2.5000   29:1       =   2.5000 
 + 29:net10   =  26.2648n  29:net21   =   2.4702   29:net6    =   2.5000 
 + 30:1       =   2.5000   30:net10   =  11.5224n  30:net21   =   2.4540 
 + 30:net6    =   2.5000   31:1       =   2.5000   31:net10   =  11.5224n
 + 31:net21   =   2.4540   31:net6    =   2.5000   32:1       =   2.5000 
 + 32:net10   =  26.2648n  32:net21   =   2.4702   32:net6    =   2.5000 
 + 33:1       =   2.5000   33:net10   =  26.2648n  33:net21   =   2.4702 
 + 33:net6    =   2.5000   34:1       =   2.5000   34:net10   =  11.5224n
 + 34:net21   =   2.4540   34:net6    =   2.5000   35:1       =   2.5000 
 + 35:net10   =  11.5224n  35:net21   =   2.4540   35:net6    =   2.5000 
 + 36:1       =   2.5000   36:net10   =  26.2648n  36:net21   =   2.4702 
 + 36:net6    =   2.5000   37:1       =   2.5000   37:net10   =  26.2648n
 + 37:net21   =   2.4702   37:net6    =   2.5000   38:1       =   2.5000 
 + 38:net10   =  11.5224n  38:net21   =   2.4540   38:net6    =   2.5000 
 + 39:1       =   2.5000   39:net10   =  11.5224n  39:net21   =   2.4540 
 + 39:net6    =   2.5000   40:1       =   2.5000   40:net10   =  26.2648n
 + 40:net21   =   2.4702   40:net6    =   2.5000   41:1       =   2.5000 
 + 41:net10   =  26.2648n  41:net21   =   2.4702   41:net6    =   2.5000 
 + 42:1       =   2.5000   42:net10   =  11.5224n  42:net21   =   2.4540 
 + 42:net6    =   2.5000   43:1       =   2.5000   43:net10   =  11.5224n
 + 43:net21   =   2.4540   43:net6    =   2.5000   44:1       =   2.5000 
 + 44:net10   =  26.2648n  44:net21   =   2.4702   44:net6    =   2.5000 
 + 45:1       =   2.5000   45:net10   =  26.2648n  45:net21   =   2.4702 
 + 45:net6    =   2.5000   46:1       =   2.5000   46:net10   =  11.5224n
 + 46:net21   =   2.4540   46:net6    =   2.5000   47:1       =   2.5000 
 + 47:net10   =  11.5224n  47:net21   =   2.4540   47:net6    =   2.5000 
 + 48:1       =   2.5000   48:net10   =  26.2648n  48:net21   =   2.4702 
 + 48:net6    =   2.5000   49:net14   =   1.0236   49:net7    =   1.4466 
 + 50:net14   =   2.5000   50:net7    =  30.5273n  51:net14   =   2.5000 
 + 51:net7    =  30.5273n  52:net14   =   2.5000   52:net7    =  30.5273n
 + 53:net14   =   2.5000   53:net7    =  30.5273n  54:net14   =   2.5000 
 + 54:net7    =  30.5273n  55:net14   =   2.5000   55:net7    =  30.5273n
 + 56:net14   =   2.5000   56:net7    =  30.5273n  57:net14   =   2.5000 
 + 57:net7    =  30.5273n  58:net14   =   2.5000   58:net7    =  30.5273n
 + 59:net14   =   2.5000   59:net7    =  30.5273n  60:net14   =   2.5000 
 + 60:net7    =  30.5273n  61:net14   =   2.5000   61:net7    =  30.5273n
 + 62:net14   =   2.5000   62:net7    =  30.5273n  63:net14   =   2.5000 
 + 63:net7    =  30.5273n  64:net14   =   2.5000   64:net7    =  30.5273n
 + 65:net14   =   2.5000   65:net7    =  30.5273n  66:net14   =   2.5000 
 + 66:net7    =  30.5273n  67:net14   =   2.5000   67:net7    =  30.5273n
 + 68:net14   =   2.5000   68:net7    =  30.5273n  69:net14   =   2.5000 
 + 69:net7    =  30.5273n  70:net14   =   2.5000   70:net7    =  30.5273n
 + 71:net14   =   2.5000   71:net7    =  30.5273n  72:net14   =   2.5000 
 + 72:net7    =  30.5273n  73:net14   =   2.5000   73:net7    =  30.5273n
 + 74:net14   =   2.5000   74:net7    =  30.5273n  75:net14   =   2.5000 
 + 75:net7    =  30.5273n  76:net14   =   2.5000   76:net7    =  30.5273n
 + 77:net14   =   2.5000   77:net7    =  30.5273n  78:net14   =   2.5000 
 + 78:net7    =  30.5273n  79:net14   =   2.5000   79:net7    =  30.5273n
 + 80:net14   =   1.0236   80:net7    =   1.4466   81:net14   =   1.0236 
 + 81:net7    =   1.4466   82:net14   =   2.5000   82:net7    =  30.5273n
 + 83:net14   =   2.5000   83:net7    =  30.5273n  84:net14   =   2.5000 
 + 84:net7    =  30.5273n  85:net14   =   2.5000   85:net7    =  30.5273n
 + 86:net14   =   2.5000   86:net7    =  30.5273n  87:net14   =   2.5000 
 + 87:net7    =  30.5273n  88:net14   =   2.5000   88:net7    =  30.5273n
 + 89:net14   =   2.5000   89:net7    =  30.5273n  90:net14   =   2.5000 
 + 90:net7    =  30.5273n  91:net14   =   2.5000   91:net7    =  30.5273n
 + 92:net14   =   2.5000   92:net7    =  30.5273n  93:net14   =   2.5000 
 + 93:net7    =  30.5273n  94:net14   =   2.5000   94:net7    =  30.5273n
 + 95:net14   =   2.5000   95:net7    =  30.5273n  96:net14   =   2.5000 
 + 96:net7    =  30.5273n  97:net14   =   2.5000   97:net7    =  30.5273n
 + 98:net14   =   2.5000   98:net7    =  30.5273n  99:net14   =   2.5000 
 + 99:net7    =  30.5273n 100:net14   =   2.5000  100:net7    =  30.5273n
 +101:net14   =   2.5000  101:net7    =  30.5273n 102:net14   =   2.5000 
 +102:net7    =  30.5273n 103:net14   =   2.5000  103:net7    =  30.5273n
 +104:net14   =   2.5000  104:net7    =  30.5273n 105:net14   =   2.5000 
 +105:net7    =  30.5273n 106:net14   =   2.5000  106:net7    =  30.5273n
 +107:net14   =   2.5000  107:net7    =  30.5273n 108:net14   =   2.5000 
 +108:net7    =  30.5273n 109:net14   =   2.5000  109:net7    =  30.5273n
 +110:net14   =   2.5000  110:net7    =  30.5273n 111:net14   =   2.5000 
 +111:net7    =  30.5273n 112:net14   =   1.0236  112:net7    =   1.4466 
 +113:net14   =   1.0236  113:net7    =   1.4466  114:net14   =   2.5000 
 +114:net7    =  30.5273n 115:net14   =   2.5000  115:net7    =  30.5273n
 +116:net14   =   2.5000  116:net7    =  30.5273n 117:net14   =   2.5000 
 +117:net7    =  30.5273n 118:net14   =   2.5000  118:net7    =  30.5273n
 +119:net14   =   2.5000  119:net7    =  30.5273n 120:net14   =   2.5000 
 +120:net7    =  30.5273n 121:net14   =   2.5000  121:net7    =  30.5273n
 +122:net14   =   2.5000  122:net7    =  30.5273n 123:net14   =   2.5000 
 +123:net7    =  30.5273n 124:net14   =   2.5000  124:net7    =  30.5273n
 +125:net14   =   2.5000  125:net7    =  30.5273n 126:net14   =   2.5000 
 +126:net7    =  30.5273n 127:net14   =   2.5000  127:net7    =  30.5273n
 +128:net14   =   2.5000  128:net7    =  30.5273n 129:net14   =   2.5000 
 +129:net7    =  30.5273n 130:net14   =   2.5000  130:net7    =  30.5273n
 +131:net14   =   2.5000  131:net7    =  30.5273n 132:net14   =   2.5000 
 +132:net7    =  30.5273n 133:net14   =   2.5000  133:net7    =  30.5273n
 +134:net14   =   2.5000  134:net7    =  30.5273n 135:net14   =   2.5000 
 +135:net7    =  30.5273n 136:net14   =   2.5000  136:net7    =  30.5273n
 +137:net14   =   2.5000  137:net7    =  30.5273n 138:net14   =   2.5000 
 +138:net7    =  30.5273n 139:net14   =   2.5000  139:net7    =  30.5273n
 +140:net14   =   2.5000  140:net7    =  30.5273n 141:net14   =   2.5000 
 +141:net7    =  30.5273n 142:net14   =   2.5000  142:net7    =  30.5273n
 +143:net14   =   2.5000  143:net7    =  30.5273n 144:net14   =   1.0236 
 +144:net7    =   1.4466  145:net14   =   1.0236  145:net7    =   1.4466 
 +146:net14   =   2.5000  146:net7    =  30.5273n 147:net14   =   2.5000 
 +147:net7    =  30.5273n 148:net14   =   2.5000  148:net7    =  30.5273n
 +149:net14   =   2.5000  149:net7    =  30.5273n 150:net14   =   2.5000 
 +150:net7    =  30.5273n 151:net14   =   2.5000  151:net7    =  30.5273n
 +152:net14   =   2.5000  152:net7    =  30.5273n 153:net14   =   2.5000 
 +153:net7    =  30.5273n 154:net14   =   2.5000  154:net7    =  30.5273n
 +155:net14   =   2.5000  155:net7    =  30.5273n 156:net14   =   2.5000 
 +156:net7    =  30.5273n 157:net14   =   2.5000  157:net7    =  30.5273n
 +158:net14   =   2.5000  158:net7    =  30.5273n 159:net14   =   2.5000 
 +159:net7    =  30.5273n 160:net14   =   2.5000  160:net7    =  30.5273n
 +161:net14   =   1.0236  161:net7    =   1.4466  162:net14   =   2.5000 
 +162:net7    =  30.5273n 163:net14   =   2.5000  163:net7    =  30.5273n
 +164:net14   =   2.5000  164:net7    =  30.5273n 165:net14   =   2.5000 
 +165:net7    =  30.5273n 166:net14   =   2.5000  166:net7    =  30.5273n
 +167:net14   =   2.5000  167:net7    =  30.5273n 168:net14   =   2.5000 
 +168:net7    =  30.5273n 169:net14   =   2.5000  169:net7    =  30.5273n
 +170:net14   =   2.5000  170:net7    =  30.5273n 171:net14   =   2.5000 
 +171:net7    =  30.5273n 172:net14   =   2.5000  172:net7    =  30.5273n
 +173:net14   =   2.5000  173:net7    =  30.5273n 174:net14   =   2.5000 
 +174:net7    =  30.5273n 175:net14   =   2.5000  175:net7    =  30.5273n
 +176:net14   =   2.5000  176:net7    =  30.5273n 177:net14   =   2.5000 
 +177:net7    =  30.5273n 178:net14   =   2.5000  178:net7    =  30.5273n
 +179:net14   =   2.5000  179:net7    =  30.5273n 180:net14   =   2.5000 
 +180:net7    =  30.5273n 181:net14   =   2.5000  181:net7    =  30.5273n
 +182:net14   =   2.5000  182:net7    =  30.5273n 183:net14   =   2.5000 
 +183:net7    =  30.5273n 184:net14   =   2.5000  184:net7    =  30.5273n
 +185:net14   =   2.5000  185:net7    =  30.5273n 186:net14   =   2.5000 
 +186:net7    =  30.5273n 187:net14   =   2.5000  187:net7    =  30.5273n
 +188:net14   =   2.5000  188:net7    =  30.5273n 189:net14   =   2.5000 
 +189:net7    =  30.5273n 190:net14   =   2.5000  190:net7    =  30.5273n
 +191:net14   =   2.5000  191:net7    =  30.5273n 192:net14   =   1.0236 
 +192:net7    =   1.4466  193:net14   =   1.0236  193:net7    =   1.4466 
 +194:net14   =   2.5000  194:net7    =  30.5273n 195:net14   =   2.5000 
 +195:net7    =  30.5273n 196:net14   =   2.5000  196:net7    =  30.5273n
 +197:net14   =   2.5000  197:net7    =  30.5273n 198:net14   =   2.5000 
 +198:net7    =  30.5273n 199:net14   =   2.5000  199:net7    =  30.5273n
 +200:net14   =   2.5000  200:net7    =  30.5273n 201:net14   =   2.5000 
 +201:net7    =  30.5273n 202:net14   =   2.5000  202:net7    =  30.5273n
 +203:net14   =   2.5000  203:net7    =  30.5273n 204:net14   =   2.5000 
 +204:net7    =  30.5273n 205:net14   =   2.5000  205:net7    =  30.5273n
 +206:net14   =   2.5000  206:net7    =  30.5273n 207:net14   =   2.5000 
 +207:net7    =  30.5273n 208:net14   =   2.5000  208:net7    =  30.5273n
 +209:net14   =   2.5000  209:net7    =  30.5273n 210:net14   =   2.5000 
 +210:net7    =  30.5273n 211:net14   =   2.5000  211:net7    =  30.5273n
 +212:net14   =   2.5000  212:net7    =  30.5273n 213:net14   =   2.5000 
 +213:net7    =  30.5273n 214:net14   =   2.5000  214:net7    =  30.5273n
 +215:net14   =   2.5000  215:net7    =  30.5273n 216:net14   =   2.5000 
 +216:net7    =  30.5273n 217:net14   =   2.5000  217:net7    =  30.5273n
 +218:net14   =   2.5000  218:net7    =  30.5273n 219:net14   =   2.5000 
 +219:net7    =  30.5273n 220:net14   =   2.5000  220:net7    =  30.5273n
 +221:net14   =   2.5000  221:net7    =  30.5273n 222:net14   =   2.5000 
 +222:net7    =  30.5273n 223:net14   =   2.5000  223:net7    =  30.5273n
 +224:net14   =   1.0236  224:net7    =   1.4466  225:net14   =   1.0236 
 +225:net7    =   1.4466  226:net14   =   2.5000  226:net7    =  30.5273n
 +227:net14   =   2.5000  227:net7    =  30.5273n 228:net14   =   2.5000 
 +228:net7    =  30.5273n 229:net14   =   2.5000  229:net7    =  30.5273n
 +230:net14   =   2.5000  230:net7    =  30.5273n 231:net14   =   2.5000 
 +231:net7    =  30.5273n 232:net14   =   2.5000  232:net7    =  30.5273n
 +233:net14   =   2.5000  233:net7    =  30.5273n 234:net14   =   2.5000 
 +234:net7    =  30.5273n 235:net14   =   2.5000  235:net7    =  30.5273n
 +236:net14   =   2.5000  236:net7    =  30.5273n 237:net14   =   2.5000 
 +237:net7    =  30.5273n 238:net14   =   2.5000  238:net7    =  30.5273n
 +239:net14   =   2.5000  239:net7    =  30.5273n 240:net14   =   2.5000 
 +240:net7    =  30.5273n 241:net14   =   2.5000  241:net7    =  30.5273n
 +242:net14   =   2.5000  242:net7    =  30.5273n 243:net14   =   2.5000 
 +243:net7    =  30.5273n 244:net14   =   2.5000  244:net7    =  30.5273n
 +245:net14   =   2.5000  245:net7    =  30.5273n 246:net14   =   2.5000 
 +246:net7    =  30.5273n 247:net14   =   2.5000  247:net7    =  30.5273n
 +248:net14   =   2.5000  248:net7    =  30.5273n 249:net14   =   2.5000 
 +249:net7    =  30.5273n 250:net14   =   2.5000  250:net7    =  30.5273n
 +251:net14   =   2.5000  251:net7    =  30.5273n 252:net14   =   2.5000 
 +252:net7    =  30.5273n 253:net14   =   2.5000  253:net7    =  30.5273n
 +254:net14   =   2.5000  254:net7    =  30.5273n 255:net14   =   2.5000 
 +255:net7    =  30.5273n 256:net14   =   1.0236  256:net7    =   1.4466 
 +257:net14   =   1.0236  257:net7    =   1.4466  258:net14   =   2.5000 
 +258:net7    =  30.5273n 259:net14   =   2.5000  259:net7    =  30.5273n
 +260:net14   =   2.5000  260:net7    =  30.5273n 261:net14   =   2.5000 
 +261:net7    =  30.5273n 262:net14   =   2.5000  262:net7    =  30.5273n
 +263:net14   =   2.5000  263:net7    =  30.5273n 264:net14   =   2.5000 
 +264:net7    =  30.5273n 265:net14   =   2.5000  265:net7    =  30.5273n
 +266:net14   =   2.5000  266:net7    =  30.5273n 267:net14   =   2.5000 
 +267:net7    =  30.5273n 268:net14   =   2.5000  268:net7    =  30.5273n
 +269:net14   =   2.5000  269:net7    =  30.5273n 270:net14   =   2.5000 
 +270:net7    =  30.5273n 271:net14   =   2.5000  271:net7    =  30.5273n
 +272:net14   =   2.5000  272:net7    =  30.5273n 273:net14   =   2.5000 
 +273:net7    =  30.5273n 274:net14   =   2.5000  274:net7    =  30.5273n
 +275:net14   =   2.5000  275:net7    =  30.5273n 276:net14   =   2.5000 
 +276:net7    =  30.5273n 277:net14   =   2.5000  277:net7    =  30.5273n
 +278:net14   =   2.5000  278:net7    =  30.5273n 279:net14   =   2.5000 
 +279:net7    =  30.5273n 280:net14   =   2.5000  280:net7    =  30.5273n
 +281:net14   =   2.5000  281:net7    =  30.5273n 282:net14   =   2.5000 
 +282:net7    =  30.5273n 283:net14   =   2.5000  283:net7    =  30.5273n
 +284:net14   =   2.5000  284:net7    =  30.5273n 285:net14   =   2.5000 
 +285:net7    =  30.5273n 286:net14   =   2.5000  286:net7    =  30.5273n
 +287:net14   =   2.5000  287:net7    =  30.5273n 288:net14   =   1.0236 
 +288:net7    =   1.4466  289:net14   =   2.5000  289:net7    =  30.5273n
 +290:net14   =   2.5000  290:net7    =  30.5273n 291:net14   =   2.5000 
 +291:net7    =  30.5273n 292:net14   =   2.5000  292:net7    =  30.5273n
 +293:net14   =   2.5000  293:net7    =  30.5273n 294:net14   =   2.5000 
 +294:net7    =  30.5273n 295:net14   =   2.5000  295:net7    =  30.5273n
 +296:net14   =   2.5000  296:net7    =  30.5273n 297:net14   =   2.5000 
 +297:net7    =  30.5273n 298:net14   =   2.5000  298:net7    =  30.5273n
 +299:net14   =   2.5000  299:net7    =  30.5273n 300:net14   =   2.5000 
 +300:net7    =  30.5273n 301:net14   =   2.5000  301:net7    =  30.5273n
 +302:net14   =   2.5000  302:net7    =  30.5273n 303:net14   =   2.5000 
 +303:net7    =  30.5273n 304:net14   =   1.0236  304:net7    =   1.4466 
 +305:1       =   2.5000  305:2       =   2.5000  305:3       =   2.5000 
 +305:4       =   2.5000  342:net10   = 101.0300n 342:net14   = 190.7854n
 +342:net42   = 324.8059n 342:net6    =  50.5150n 343:net10   =   2.0582 
 +343:net14   =   2.0802  343:net42   =   2.5000  343:net6    =   2.0494 
 +344:net10   =   2.0589  344:net14   =   2.0808  344:net42   =   2.5000 
 +344:net6    =  67.0220n 345:net10   =   2.1140  345:net14   =   2.1345 
 +345:net42   =   2.5000  345:net6    =  56.7606m 346:net10   =  64.4925n
 +346:net14   =   2.1102  346:net42   =   2.5000  346:net6    =  32.2463n
 +347:net10   =  35.5813m 347:net14   =   2.1440  347:net42   =   2.5000 
 +347:net6    =  35.5813m 348:net10   =  35.6316m 348:net14   =   2.1441 
 +348:net42   =   2.5000  348:net6    =  13.0142n 349:net10   =  53.8255m
 +349:net14   =   2.1598  349:net42   =   2.5000  349:net6    =  17.3782m
 +350:net10   =  17.2850m 350:net14   =  58.9949m 350:net42   =   2.5000 
 +350:net6    =   7.6491m 351:net10   =   9.5483m 351:net14   =  50.2410m
 +351:net42   =   2.5000  351:net6    =   5.0868n 352:net10   =   9.5370m
 +352:net14   =  50.2283m 352:net42   =   2.5000  352:net6    =   9.5370m
 +353:net10   =  12.9622n 353:net14   =  39.7218m 353:net42   =   2.5000 
 +353:net6    =   6.4811n 354:net10   =  36.5382m 354:net14   =  36.5382m
 +354:net42   =   2.5000  354:net6    =  13.8398m 355:net10   =  22.1071m
 +355:net14   =  22.1071m 355:net42   =   2.5000  355:net6    =   9.8573n
 +356:net10   =  22.0785m 356:net14   =  22.0785m 356:net42   =   2.5000 
 +356:net6    =  22.0784m 357:net10   =  34.2500n 357:net14   =  64.6778n
 +357:net42   =   2.5000  357:net6    =  17.1250n


          ***** job concluded
1****** HSPICE -- F-2011.09-SP2 32-BIT (Feb 27 2012) linux ******               
 ******  
 * 'sup' is a variable you set to adjust the supply voltage

  ******  job statistics summary tnom=  25.000 temp=  25.000 *****
  
  
 ******  Machine Information  ******
 CPU:
 model name	: Intel(R) Xeon(R) CPU E3-1240 V2 @ 3.40GHz
 cpu MHz	: 3401.000
  
 OS:
 Linux version 2.6.32-431.1.2.0.1.el6.x86_64 (mockbuild@c6b9.bsys.dev.centos.org
 ) (gcc version 4.4.7 20120313 (Red Hat 4.4.7-4) (GCC) ) #1 SMP Fri Dec 13 13:06
 :13 UTC 2013


  ******  HSPICE Threads Information  ******

  Command Line Threads Count :     1
  Available CPU Count        :     8
  Actual Threads Count       :     1


  ******  Circuit Statistics  ******
  # nodes       =     843 # elements   =    2158
  # resistors   =      48 # capacitors =      96 # inductors   =       0
  # mutual_inds =       0 # vccs       =       0 # vcvs        =       0
  # cccs        =       0 # ccvs       =       0 # volt_srcs   =      22
  # curr_srcs   =       0 # diodes     =       0 # bjts        =       0
  # jfets       =       0 # mosfets    =    1992 # U elements  =       0
  # T elements  =       0 # W elements =       0 # B elements  =       0
  # S elements  =       0 # P elements =       0 # va device   =       0
  # vector_srcs =       0


  ******  Runtime Statistics (seconds)  ******

  analysis           time    # points   tot. iter  conv.iter
  op point           0.11           1          48
  transient          1.92        1201        1384         502 rev=        65
  readin             0.02
  errchk             0.18
  setup              0.01
  output             0.00


           peak memory used        111.02 megabytes
           total cpu time            2.27 seconds
           total elapsed time        2.88 seconds
           job started at     19:42:48 03/16/2014
           job ended   at     19:42:51 03/16/2014


 lic: Release hspice token(s) 
