Using: /usr/local/apps/synopsys/current_hspice/hspice/linux/hspice sim_deck
 ****** HSPICE -- F-2011.09-SP2 32-BIT (Feb 27 2012) linux ******               
  Copyright (C) 2011 Synopsys, Inc. All Rights Reserved.                        
  Unpublished-rights reserved under US copyright laws.
  This program is protected by law and is subject to the
  terms and conditions of the license agreement from Synopsys.
  Use of this program is your acceptance to be bound by the
  license agreement. HSPICE is the trademark of Synopsys, Inc.
  Input File: sim_deck                                                          
  Command line options: sim_deck
 lic:  
 lic: FLEXlm: v10.8 
 lic: USER:   branaugj             HOSTNAME: dear119-24.engr.oregonstate.edu 
 lic: HOSTID: 7446a09dad18         PID:      936 
 lic: Using FLEXlm license file: 
 lic: 7188@license.eecs.oregonstate.edu 
 lic: Checkout 1 hspice 
 lic: License/Maintenance for hspice will expire on 11-aug-2014/2013.03 
 lic: 3(in_use)/50(total) FLOATING license(s) on SERVER license.eecs.oregonstate
 lic:   
 Init: read install configuration file: /usr/local/apps/synopsys/current_hspice/hspice/meta.cfg
 **warning** (./netlists/sram_netlist.sp:700)'.end' can not exist in include/lib files, ignored

 **warning**  runlvl smaller than 5, reset to 5  when accurate turned on
 scientific notation:
 a=10**-18  f=10**-15  p=10**-12  n=10**-9  u=10**-6
 m=10**-3   k=10**3    x=10**6    g=10**9 

 **warning**  runlvl smaller than 5, reset to 5  when accurate turned on
1****** HSPICE -- F-2011.09-SP2 32-BIT (Feb 27 2012) linux ******               
 ******  
 * 'sup' is a variable you set to adjust the supply voltage

  ******  circuit name directory
 circuit number to circuit name directory
   number circuitname                     definition         multiplier
        0 main circuit
        1 xi437.                          sub2               1.00 
        2 xi436.                          sub2               1.00 
        3 xi435.                          sub2               1.00 
        4 xi434.                          sub2               1.00 
        5 xi433.                          sub2               1.00 
        6 xi432.                          sub2               1.00 
        7 xi431.                          sub2               1.00 
        8 xi430.                          sub2               1.00 
        9 xi429.                          sub2               1.00 
       10 xi428.                          sub2               1.00 
       11 xi427.                          sub2               1.00 
       12 xi426.                          sub2               1.00 
       13 xi425.                          sub2               1.00 
       14 xi424.                          sub2               1.00 
       15 xi423.                          sub2               1.00 
       16 xi422.                          sub2               1.00 
       17 xi403.                          sub3               1.00 
       18 xi404.                          sub3               1.00 
       19 xi405.                          sub3               1.00 
       20 xi406.                          sub3               1.00 
       21 xi413.                          sub3               1.00 
       22 xi414.                          sub3               1.00 
       23 xi407.                          sub3               1.00 
       24 xi408.                          sub3               1.00 
       25 xi415.                          sub3               1.00 
       26 xi416.                          sub3               1.00 
       27 xi417.                          sub3               1.00 
       28 xi418.                          sub3               1.00 
       29 xi409.                          sub3               1.00 
       30 xi412.                          sub3               1.00 
       31 xi411.                          sub3               1.00 
       32 xi410.                          sub3               1.00 
       33 xi372.                          sub4               1.00 
       34 xi387.                          sub4               1.00 
       35 xi366.                          sub4               1.00 
       36 xi369.                          sub4               1.00 
       37 xi370.                          sub4               1.00 
       38 xi367.                          sub4               1.00 
       39 xi363.                          sub4               1.00 
       40 xi364.                          sub4               1.00 
       41 xi361.                          sub4               1.00 
       42 xi360.                          sub4               1.00 
       43 xi358.                          sub4               1.00 
       44 xi356.                          sub4               1.00 
       45 xi388.                          sub4               1.00 
       46 xi385.                          sub4               1.00 
       47 xi390.                          sub4               1.00 
       48 xi357.                          sub4               1.00 
       49 xi396.                          sub4               1.00 
       50 xi391.                          sub4               1.00 
       51 xi373.                          sub4               1.00 
       52 xi381.                          sub4               1.00 
       53 xi397.                          sub4               1.00 
       54 xi376.                          sub4               1.00 
       55 xi382.                          sub4               1.00 
       56 xi378.                          sub4               1.00 
       57 xi393.                          sub4               1.00 
       58 xi399.                          sub4               1.00 
       59 xi400.                          sub4               1.00 
       60 xi402.                          sub4               1.00 
       61 xi375.                          sub4               1.00 
       62 xi384.                          sub4               1.00 
       63 xi379.                          sub4               1.00 
       64 xi394.                          sub4               1.00 
       65 xi368.                          sub1               1.00 
       66 xi371.                          sub1               1.00 
       67 xi365.                          sub1               1.00 
       68 xi362.                          sub1               1.00 
       69 xi359.                          sub1               1.00 
       70 xi355.                          sub1               1.00 
       71 xi386.                          sub1               1.00 
       72 xi389.                          sub1               1.00 
       73 xi395.                          sub1               1.00 
       74 xi374.                          sub1               1.00 
       75 xi392.                          sub1               1.00 
       76 xi398.                          sub1               1.00 
       77 xi377.                          sub1               1.00 
       78 xi401.                          sub1               1.00 
       79 xi380.                          sub1               1.00 
       80 xi383.                          sub1               1.00 
       81 xi145.                          final_sram_g2      1.00 
       82 xi144.                          final_sram_g2      1.00 
       83 xi143.                          final_sram_g2      1.00 
       84 xi142.                          final_sram_g2      1.00 
       85 xi141.                          final_sram_g2      1.00 
       86 xi140.                          final_sram_g2      1.00 
       87 xi139.                          final_sram_g2      1.00 
       88 xi138.                          final_sram_g2      1.00 
       89 xi137.                          final_sram_g2      1.00 
       90 xi136.                          final_sram_g2      1.00 
       91 xi135.                          final_sram_g2      1.00 
       92 xi134.                          final_sram_g2      1.00 
       93 xi133.                          final_sram_g2      1.00 
       94 xi132.                          final_sram_g2      1.00 
       95 xi131.                          final_sram_g2      1.00 
       96 xi130.                          final_sram_g2      1.00 
       97 xi129.                          final_sram_g2      1.00 
       98 xi128.                          final_sram_g2      1.00 
       99 xi127.                          final_sram_g2      1.00 
      100 xi126.                          final_sram_g2      1.00 
      101 xi125.                          final_sram_g2      1.00 
      102 xi124.                          final_sram_g2      1.00 
      103 xi123.                          final_sram_g2      1.00 
      104 xi122.                          final_sram_g2      1.00 
      105 xi121.                          final_sram_g2      1.00 
      106 xi120.                          final_sram_g2      1.00 
      107 xi119.                          final_sram_g2      1.00 
      108 xi118.                          final_sram_g2      1.00 
      109 xi117.                          final_sram_g2      1.00 
      110 xi116.                          final_sram_g2      1.00 
      111 xi115.                          final_sram_g2      1.00 
      112 xi114.                          final_sram_g2      1.00 
      113 xi113.                          final_sram_g2      1.00 
      114 xi112.                          final_sram_g2      1.00 
      115 xi111.                          final_sram_g2      1.00 
      116 xi110.                          final_sram_g2      1.00 
      117 xi109.                          final_sram_g2      1.00 
      118 xi108.                          final_sram_g2      1.00 
      119 xi107.                          final_sram_g2      1.00 
      120 xi106.                          final_sram_g2      1.00 
      121 xi105.                          final_sram_g2      1.00 
      122 xi104.                          final_sram_g2      1.00 
      123 xi103.                          final_sram_g2      1.00 
      124 xi102.                          final_sram_g2      1.00 
      125 xi101.                          final_sram_g2      1.00 
      126 xi100.                          final_sram_g2      1.00 
      127 xi99.                           final_sram_g2      1.00 
      128 xi98.                           final_sram_g2      1.00 
      129 xi97.                           final_sram_g2      1.00 
      130 xi96.                           final_sram_g2      1.00 
      131 xi95.                           final_sram_g2      1.00 
      132 xi94.                           final_sram_g2      1.00 
      133 xi93.                           final_sram_g2      1.00 
      134 xi92.                           final_sram_g2      1.00 
      135 xi91.                           final_sram_g2      1.00 
      136 xi90.                           final_sram_g2      1.00 
      137 xi89.                           final_sram_g2      1.00 
      138 xi88.                           final_sram_g2      1.00 
      139 xi87.                           final_sram_g2      1.00 
      140 xi86.                           final_sram_g2      1.00 
      141 xi85.                           final_sram_g2      1.00 
      142 xi84.                           final_sram_g2      1.00 
      143 xi83.                           final_sram_g2      1.00 
      144 xi82.                           final_sram_g2      1.00 
      145 xi73.                           final_sram_g2      1.00 
      146 xi72.                           final_sram_g2      1.00 
      147 xi71.                           final_sram_g2      1.00 
      148 xi70.                           final_sram_g2      1.00 
      149 xi69.                           final_sram_g2      1.00 
      150 xi68.                           final_sram_g2      1.00 
      151 xi67.                           final_sram_g2      1.00 
      152 xi66.                           final_sram_g2      1.00 
      153 xi65.                           final_sram_g2      1.00 
      154 xi64.                           final_sram_g2      1.00 
      155 xi63.                           final_sram_g2      1.00 
      156 xi62.                           final_sram_g2      1.00 
      157 xi61.                           final_sram_g2      1.00 
      158 xi60.                           final_sram_g2      1.00 
      159 xi59.                           final_sram_g2      1.00 
      160 xi58.                           final_sram_g2      1.00 
      161 xi57.                           final_sram_g2      1.00 
      162 xi56.                           final_sram_g2      1.00 
      163 xi55.                           final_sram_g2      1.00 
      164 xi54.                           final_sram_g2      1.00 
      165 xi53.                           final_sram_g2      1.00 
      166 xi52.                           final_sram_g2      1.00 
      167 xi51.                           final_sram_g2      1.00 
      168 xi50.                           final_sram_g2      1.00 
      169 xi49.                           final_sram_g2      1.00 
      170 xi48.                           final_sram_g2      1.00 
      171 xi47.                           final_sram_g2      1.00 
      172 xi46.                           final_sram_g2      1.00 
      173 xi45.                           final_sram_g2      1.00 
      174 xi44.                           final_sram_g2      1.00 
      175 xi43.                           final_sram_g2      1.00 
      176 xi42.                           final_sram_g2      1.00 
      177 xi37.                           final_sram_g2      1.00 
      178 xi36.                           final_sram_g2      1.00 
      179 xi35.                           final_sram_g2      1.00 
      180 xi34.                           final_sram_g2      1.00 
      181 xi33.                           final_sram_g2      1.00 
      182 xi32.                           final_sram_g2      1.00 
      183 xi31.                           final_sram_g2      1.00 
      184 xi30.                           final_sram_g2      1.00 
      185 xi29.                           final_sram_g2      1.00 
      186 xi28.                           final_sram_g2      1.00 
      187 xi27.                           final_sram_g2      1.00 
      188 xi26.                           final_sram_g2      1.00 
      189 xi25.                           final_sram_g2      1.00 
      190 xi24.                           final_sram_g2      1.00 
      191 xi23.                           final_sram_g2      1.00 
      192 xi22.                           final_sram_g2      1.00 
      193 xi289.                          final_sram_g2      1.00 
      194 xi288.                          final_sram_g2      1.00 
      195 xi287.                          final_sram_g2      1.00 
      196 xi286.                          final_sram_g2      1.00 
      197 xi285.                          final_sram_g2      1.00 
      198 xi284.                          final_sram_g2      1.00 
      199 xi283.                          final_sram_g2      1.00 
      200 xi282.                          final_sram_g2      1.00 
      201 xi281.                          final_sram_g2      1.00 
      202 xi280.                          final_sram_g2      1.00 
      203 xi279.                          final_sram_g2      1.00 
      204 xi278.                          final_sram_g2      1.00 
      205 xi277.                          final_sram_g2      1.00 
      206 xi276.                          final_sram_g2      1.00 
      207 xi275.                          final_sram_g2      1.00 
      208 xi274.                          final_sram_g2      1.00 
      209 xi273.                          final_sram_g2      1.00 
      210 xi272.                          final_sram_g2      1.00 
      211 xi271.                          final_sram_g2      1.00 
      212 xi270.                          final_sram_g2      1.00 
      213 xi269.                          final_sram_g2      1.00 
      214 xi268.                          final_sram_g2      1.00 
      215 xi267.                          final_sram_g2      1.00 
      216 xi266.                          final_sram_g2      1.00 
      217 xi265.                          final_sram_g2      1.00 
      218 xi264.                          final_sram_g2      1.00 
      219 xi263.                          final_sram_g2      1.00 
      220 xi262.                          final_sram_g2      1.00 
      221 xi261.                          final_sram_g2      1.00 
      222 xi260.                          final_sram_g2      1.00 
      223 xi259.                          final_sram_g2      1.00 
      224 xi258.                          final_sram_g2      1.00 
      225 xi257.                          final_sram_g2      1.00 
      226 xi256.                          final_sram_g2      1.00 
      227 xi255.                          final_sram_g2      1.00 
      228 xi254.                          final_sram_g2      1.00 
      229 xi253.                          final_sram_g2      1.00 
      230 xi252.                          final_sram_g2      1.00 
      231 xi251.                          final_sram_g2      1.00 
      232 xi250.                          final_sram_g2      1.00 
      233 xi249.                          final_sram_g2      1.00 
      234 xi248.                          final_sram_g2      1.00 
      235 xi247.                          final_sram_g2      1.00 
      236 xi246.                          final_sram_g2      1.00 
      237 xi245.                          final_sram_g2      1.00 
      238 xi244.                          final_sram_g2      1.00 
      239 xi243.                          final_sram_g2      1.00 
      240 xi242.                          final_sram_g2      1.00 
      241 xi241.                          final_sram_g2      1.00 
      242 xi240.                          final_sram_g2      1.00 
      243 xi239.                          final_sram_g2      1.00 
      244 xi238.                          final_sram_g2      1.00 
      245 xi237.                          final_sram_g2      1.00 
      246 xi236.                          final_sram_g2      1.00 
      247 xi235.                          final_sram_g2      1.00 
      248 xi234.                          final_sram_g2      1.00 
      249 xi233.                          final_sram_g2      1.00 
      250 xi232.                          final_sram_g2      1.00 
      251 xi231.                          final_sram_g2      1.00 
      252 xi230.                          final_sram_g2      1.00 
      253 xi229.                          final_sram_g2      1.00 
      254 xi228.                          final_sram_g2      1.00 
      255 xi227.                          final_sram_g2      1.00 
      256 xi226.                          final_sram_g2      1.00 
      257 xi225.                          final_sram_g2      1.00 
      258 xi224.                          final_sram_g2      1.00 
      259 xi223.                          final_sram_g2      1.00 
      260 xi222.                          final_sram_g2      1.00 
      261 xi221.                          final_sram_g2      1.00 
      262 xi220.                          final_sram_g2      1.00 
      263 xi219.                          final_sram_g2      1.00 
      264 xi218.                          final_sram_g2      1.00 
      265 xi217.                          final_sram_g2      1.00 
      266 xi216.                          final_sram_g2      1.00 
      267 xi215.                          final_sram_g2      1.00 
      268 xi214.                          final_sram_g2      1.00 
      269 xi213.                          final_sram_g2      1.00 
      270 xi212.                          final_sram_g2      1.00 
      271 xi211.                          final_sram_g2      1.00 
      272 xi210.                          final_sram_g2      1.00 
      273 xi209.                          final_sram_g2      1.00 
      274 xi208.                          final_sram_g2      1.00 
      275 xi207.                          final_sram_g2      1.00 
      276 xi206.                          final_sram_g2      1.00 
      277 xi205.                          final_sram_g2      1.00 
      278 xi204.                          final_sram_g2      1.00 
      279 xi203.                          final_sram_g2      1.00 
      280 xi202.                          final_sram_g2      1.00 
      281 xi201.                          final_sram_g2      1.00 
      282 xi200.                          final_sram_g2      1.00 
      283 xi199.                          final_sram_g2      1.00 
      284 xi198.                          final_sram_g2      1.00 
      285 xi197.                          final_sram_g2      1.00 
      286 xi196.                          final_sram_g2      1.00 
      287 xi195.                          final_sram_g2      1.00 
      288 xi194.                          final_sram_g2      1.00 
      289 xi193.                          final_sram_g2      1.00 
      290 xi192.                          final_sram_g2      1.00 
      291 xi191.                          final_sram_g2      1.00 
      292 xi190.                          final_sram_g2      1.00 
      293 xi189.                          final_sram_g2      1.00 
      294 xi188.                          final_sram_g2      1.00 
      295 xi187.                          final_sram_g2      1.00 
      296 xi186.                          final_sram_g2      1.00 
      297 xi185.                          final_sram_g2      1.00 
      298 xi184.                          final_sram_g2      1.00 
      299 xi183.                          final_sram_g2      1.00 
      300 xi182.                          final_sram_g2      1.00 
      301 xi181.                          final_sram_g2      1.00 
      302 xi180.                          final_sram_g2      1.00 
      303 xi179.                          final_sram_g2      1.00 
      304 xi178.                          final_sram_g2      1.00 
      305 xi177.                          final_sram_g2      1.00 
      306 xi176.                          final_sram_g2      1.00 
      307 xi175.                          final_sram_g2      1.00 
      308 xi174.                          final_sram_g2      1.00 
      309 xi173.                          final_sram_g2      1.00 
      310 xi172.                          final_sram_g2      1.00 
      311 xi171.                          final_sram_g2      1.00 
      312 xi170.                          final_sram_g2      1.00 
      313 xi169.                          final_sram_g2      1.00 
      314 xi168.                          final_sram_g2      1.00 
      315 xi167.                          final_sram_g2      1.00 
      316 xi166.                          final_sram_g2      1.00 
      317 xi165.                          final_sram_g2      1.00 
      318 xi164.                          final_sram_g2      1.00 
      319 xi163.                          final_sram_g2      1.00 
      320 xi162.                          final_sram_g2      1.00 
      321 xi17.                           final_sram_g2      1.00 
      322 xi16.                           final_sram_g2      1.00 
      323 xi15.                           final_sram_g2      1.00 
      324 xi14.                           final_sram_g2      1.00 
      325 xi13.                           final_sram_g2      1.00 
      326 xi12.                           final_sram_g2      1.00 
      327 xi11.                           final_sram_g2      1.00 
      328 xi10.                           final_sram_g2      1.00 
      329 xi9.                            final_sram_g2      1.00 
      330 xi8.                            final_sram_g2      1.00 
      331 xi7.                            final_sram_g2      1.00 
      332 xi6.                            final_sram_g2      1.00 
      333 xi5.                            final_sram_g2      1.00 
      334 xi4.                            final_sram_g2      1.00 
      335 xi3.                            final_sram_g2      1.00 
      336 xi2.                            final_sram_g2      1.00 
      337 xi1.                            final_decoder_g3   1.00 
      338 xi372.xi0.                      sub1               1.00 
      339 xi387.xi0.                      sub1               1.00 
      340 xi366.xi0.                      sub1               1.00 
      341 xi369.xi0.                      sub1               1.00 
      342 xi370.xi0.                      sub1               1.00 
      343 xi367.xi0.                      sub1               1.00 
      344 xi363.xi0.                      sub1               1.00 
      345 xi364.xi0.                      sub1               1.00 
      346 xi361.xi0.                      sub1               1.00 
      347 xi360.xi0.                      sub1               1.00 
      348 xi358.xi0.                      sub1               1.00 
      349 xi356.xi0.                      sub1               1.00 
      350 xi388.xi0.                      sub1               1.00 
      351 xi385.xi0.                      sub1               1.00 
      352 xi390.xi0.                      sub1               1.00 
      353 xi357.xi0.                      sub1               1.00 
      354 xi396.xi0.                      sub1               1.00 
      355 xi391.xi0.                      sub1               1.00 
      356 xi373.xi0.                      sub1               1.00 
      357 xi381.xi0.                      sub1               1.00 
      358 xi397.xi0.                      sub1               1.00 
      359 xi376.xi0.                      sub1               1.00 
      360 xi382.xi0.                      sub1               1.00 
      361 xi378.xi0.                      sub1               1.00 
      362 xi393.xi0.                      sub1               1.00 
      363 xi399.xi0.                      sub1               1.00 
      364 xi400.xi0.                      sub1               1.00 
      365 xi402.xi0.                      sub1               1.00 
      366 xi375.xi0.                      sub1               1.00 
      367 xi384.xi0.                      sub1               1.00 
      368 xi379.xi0.                      sub1               1.00 
      369 xi394.xi0.                      sub1               1.00 
      370 xi1.xi18.                       sub1               1.00 
      371 xi1.xi20.                       sub1               1.00 
      372 xi1.xi17.                       sub1               1.00 
      373 xi1.xi19.                       sub1               1.00 
      374 xi1.xi15.                       final_and4_g1      1.00 
      375 xi1.xi14.                       final_and4_g1      1.00 
      376 xi1.xi13.                       final_and4_g1      1.00 
      377 xi1.xi12.                       final_and4_g1      1.00 
      378 xi1.xi11.                       final_and4_g1      1.00 
      379 xi1.xi10.                       final_and4_g1      1.00 
      380 xi1.xi9.                        final_and4_g1      1.00 
      381 xi1.xi8.                        final_and4_g1      1.00 
      382 xi1.xi7.                        final_and4_g1      1.00 
      383 xi1.xi6.                        final_and4_g1      1.00 
      384 xi1.xi5.                        final_and4_g1      1.00 
      385 xi1.xi4.                        final_and4_g1      1.00 
      386 xi1.xi3.                        final_and4_g1      1.00 
      387 xi1.xi2.                        final_and4_g1      1.00 
      388 xi1.xi1.                        final_and4_g1      1.00 
      389 xi1.xi0.                        final_and4_g1      1.00 


 circuit parameter definitions
  parameter          =  value 

     0:sup                                                     =   2.5000       
     0:del_t                                                   =  10.0000n      




 constants  - tnom         kt           vt           gapsi        ni
            298.15000    4.1163e-21    25.69184m     1.11562    1.2565e+16 
1****** HSPICE -- F-2011.09-SP2 32-BIT (Feb 27 2012) linux ******               
 ******  
 * 'sup' is a variable you set to adjust the supply voltage

  ******  mos   model parameters tnom=  25.000 temp=  25.000 *****
 ***************************************************************************
 ***        model parameters  model name:   0:tsmc25dn model type:nmos   ***
 ***************************************************************************

   *** general parameters ***
    deriv=   0.           

   ***  level 49  model parameters  ***

      hspver=    2006.03               level=         49         
     version=        3.1            paramchk=          0         
      apwarn=          1                lite=          0         
      vgslim=          0             binUnit=          1         
      capMod=          2               xpart=        0.4         
      mobMod=          1              nqsMod=          0         
      stiMod=          0                 elm=          5         
    sfvtflag=          0                 tox=    5.8e-09 meter   
          xj=      1e-07 meter       binflag=          0         
        lmin=          0 meter          lmax=          0 meter   
        wmin=          0 meter          wmax=          0 meter   
        lref=          0 meter          wref=          0 meter   
        lint=4.39347e-09 meter          wint= 2.1265e-09 meter   
       lmult=          1               wmult=          1         
          ll=          0                 lln=          1         
          lw=          0                 lwn=          1         
         lwl=          0                  wl=          0         
         wln=          1                  ww=          0         
         wwn=          1                 wwl=          0         
         dwg=-3.40903e-09 m/V             dwb=2.79484e-09 m/V^1/2 
          xl=     -3e-08                  xw=          0         
          a0=    1.23186                 ags=   0.304333 V^-1    
          b0=6.67749e-08 meter            b1=      5e-06 meter   
        keta=0.000851805 V^-1           voff=  -0.102605 V       
       ngate=          0 cm^-3           vbx=          0 V       
         vbm=         -3 V                xt=   1.55e-07 meter   
        vth0=   0.430894 V               nch= 2.3549e+17 cm^-3   
        nsub=      6e+16 cm^-3           nlx= 1.4659e-07 meter   
      gamma1=          0 V^-1/2       gamma2=          0 V^-1/2  
          k1=   0.351943 V^1/2            k2=  0.0298493         
          k3=      0.001                 k3b=  0.0592323 V^-1    
          w0=      1e-05 meter          dvt0=  0.0183405         
        dvt1= 0.00489758                dvt2= -0.0252658 V^-1    
       dvt0w=          0 meter^-1      dvt1w=          0 meter^-1
       dvt2w=          0 V^-1           dsub= 0.00304547         
        eta0= 0.00348737                etab=0.000455799 V^-1    
          u0=    455.303 cm^2/V/sec         ua=5.22359e-10 m/V     
          ub=1.10471e-18 (m/V)^2          uc=3.28789e-11 V^-1    
        vsat=     105099 m/sec            a1=          0 v^-1    
          a2=          1               delta=       0.01 V       
        rdsw=    509.568 ohm-um         prwg=  0.0227558 V^-1    
        prwb=     -0.001 V^-1/2           wr=          1         
        pclm=    1.04463             pdiblc1=   0.144195         
     pdiblc2=0.000451338             pdiblcb=-2.81676e-05 V^-1    
      pscbe1=1.76111e+10 V/m          pscbe2=3.77292e-09 V/m     
       drout=   0.469872                pvag=  0.0361824         
     nfactor=   0.134489                cdsc= 0.00152751 f/m^2   
       cdscb=          0 f/V/m^2       cdscd=          0 f/V/m^2 
         cit=          0 f/m^2        alpha0=          0 m/V     
       beta0=         30 V               dlc=4.39347e-09 meter   
         dwc= 2.1265e-09 meter           clc=      1e-07 meter   
         cle=        0.6                cgso=   6.27e-10 f/m     
        cgdo=   6.27e-10 f/m            cgbo=          0 f/m     
        cgsl=          0 f/m            cgdl=          0 f/m     
      ckappa=        0.6                  cf=9.33852e-11 f/m     
        tnom=     300.15 K               kt1=      -0.11 V       
        kt1l=          0                 kt2=      0.022         
         ute=       -1.5                 ua1=   4.31e-09 m/V     
         ub1=  -7.61e-18 (m/V)^2         uc1=   -5.6e-11 m/V^2   
          at=      33000 m/s             prt=          0         
         using Berkeley noise model       noiMod=          1         
        noia=      1e+20                noib=      50000         
        noic=   -1.4e-12                  em=    4.1e+07         
          ef=          1                  af=          1         
          kf=          0              gdsnoi=-1.23457e-29         
         using Hspice diodes            using ACM 
         acm=         0                 hdif=         0 meter    
        ldif=         0 meter             js=         0 amp/m^2  
         jsw=         0 amp/m            xti=         0          
           n=         1                   cj=0.00191866 f/m^2    
          mj=  0.472173                   pb=  0.978405 V        
        cjsw=4.44159e-10 f/m             mjsw=  0.287112          
         php=  0.978405 V               pbsw (not used)           
      cjgate=4.44159e-10 f/m            cjswg (not used)           
       mjswg (not used)                 pbswg (not used)           
       lketa=-0.00614406               wketa=0.000751269         
       pvth0= 0.00134299                 pk2=-0.00314072         
       prdsw=   -61.8357         
 ***************************************************************************
 ***        model parameters  model name:   0:tsmc25dp model type:pmos   ***
 ***************************************************************************

   *** general parameters ***
    deriv=   0.           

   ***  level 49  model parameters  ***

      hspver=    2006.03               level=         49         
     version=        3.1            paramchk=          0         
      apwarn=          1                lite=          0         
      vgslim=          0             binUnit=          1         
      capMod=          2               xpart=        0.4         
      mobMod=          1              nqsMod=          0         
      stiMod=          0                 elm=          5         
    sfvtflag=          0                 tox=    5.8e-09 meter   
          xj=      1e-07 meter       binflag=          0         
        lmin=          0 meter          lmax=          0 meter   
        wmin=          0 meter          wmax=          0 meter   
        lref=          0 meter          wref=          0 meter   
        lint=8.71907e-09 meter          wint=2.74881e-08 meter   
       lmult=          1               wmult=          1         
          ll=          0                 lln=          1         
          lw=          0                 lwn=          1         
         lwl=          0                  wl=          0         
         wln=          1                  ww=          0         
         wwn=          1                 wwl=          0         
         dwg=-4.08759e-08 m/V             dwb=2.03201e-08 m/V^1/2 
          xl=     -3e-08                  xw=          0         
          a0=    1.38264                 ags=   0.419298 V^-1    
          b0= 2.8441e-06 meter            b1=      5e-06 meter   
        keta=  0.0208695 V^-1           voff=      -0.15 V       
       ngate=          0 cm^-3           vbx=          0 V       
         vbm=         -3 V                xt=   1.55e-07 meter   
        vth0=  -0.615873 V               nch= 4.1589e+17 cm^-3   
        nsub=      6e+16 cm^-3           nlx=      1e-09 meter   
      gamma1=          0 V^-1/2       gamma2=          0 V^-1/2  
          k1=   0.459838 V^1/2            k2=  0.0399415         
          k3=          0                 k3b=    8.74107 V^-1    
          w0=      1e-06 meter          dvt0=   0.624949         
        dvt1=   0.203296                dvt2= -0.0513763 V^-1    
       dvt0w=          0 meter^-1      dvt1w=          0 meter^-1
       dvt2w=          0 V^-1           dsub=    1.02871         
        eta0=   0.324124                etab=    -0.1842 V^-1    
          u0=    158.675 cm^2/V/sec         ua=2.20002e-10 m/V     
          ub=4.45742e-18 (m/V)^2          uc=1.02138e-10 V^-1    
        vsat=     185064 m/sec            a1=          0 v^-1    
          a2=          1               delta=       0.01 V       
        rdsw=    968.546 ohm-um         prwg=  -0.102648 V^-1    
        prwb=     -0.325 V^-1/2           wr=          1         
        pclm=    5.26546             pdiblc1= 0.00422834         
     pdiblc2= 0.00120452             pdiblcb= 0.00237525 V^-1    
      pscbe1=3.01146e+10 V/m          pscbe2=3.03704e-07 V/m     
       drout=          0                pvag=    8.95643         
     nfactor=    1.54605                cdsc=0.000141332 f/m^2   
       cdscb=          0 f/V/m^2       cdscd=          0 f/V/m^2 
         cit=          0 f/m^2        alpha0=          0 m/V     
       beta0=         30 V               dlc=8.71907e-09 meter   
         dwc=2.74881e-08 meter           clc=      1e-07 meter   
         cle=        0.6                cgso=   5.59e-10 f/m     
        cgdo=   5.59e-10 f/m            cgbo=          0 f/m     
        cgsl=          0 f/m            cgdl=          0 f/m     
      ckappa=        0.6                  cf=9.33852e-11 f/m     
        tnom=     300.15 K               kt1=      -0.11 V       
        kt1l=          0                 kt2=      0.022         
         ute=       -1.5                 ua1=   4.31e-09 m/V     
         ub1=  -7.61e-18 (m/V)^2         uc1=   -5.6e-11 m/V^2   
          at=      33000 m/s             prt=          0         
         using Berkeley noise model       noiMod=          1         
        noia=    9.9e+18                noib=       2400         
        noic=    1.4e-12                  em=    4.1e+07         
          ef=          1                  af=          1         
          kf=          0              gdsnoi=-1.23457e-29         
         using Hspice diodes            using ACM 
         acm=         0                 hdif=         0 meter    
        ldif=         0 meter             js=         0 amp/m^2  
         jsw=         0 amp/m            xti=         0          
           n=         1                   cj=0.00188286 f/m^2    
          mj=  0.467979                   pb=  0.989132 V        
        cjsw=3.67186e-10 f/m             mjsw=  0.356213          
         php=  0.989132 V               pbsw (not used)           
      cjgate=3.67186e-10 f/m            cjswg (not used)           
       mjswg (not used)                 pbswg (not used)           
       lketa= -0.0232426               lvsat=     125700         
       wketa= 0.00410049               pvth0= 0.00392376         
         pk2= 0.00206176               prdsw=    15.3953         
  **info** (sim_deck:32) DC voltage reset to initial transient source value              in source        0:v0                  new dc=  0.0000D+00
  **warning** (sim_deck:4) Both nodes of element vgnd are connected together; Line ignored.
 

1****** HSPICE -- F-2011.09-SP2 32-BIT (Feb 27 2012) linux ******               
 ******  
 * 'sup' is a variable you set to adjust the supply voltage

  ******  circuit element summary tnom=  25.000 temp=  25.000 *****


 **** resistors

  
  
                                                                    
 element name        0:r15        0:r17       0:r18       0:r19     
 node1               0:net400     0:net398    0:net396    0:net394  
 node2               0:net0666    0:net448    0:net454    0:net0657 
 model                                                              
 res eff            48.0000      48.0000     48.0000     48.0000    
 tc1                 0.           0.          0.          0.        
 tc2                 0.           0.          0.          0.        
 scale               1.0000       1.0000      1.0000      1.0000    
 m                   1.0000       1.0000      1.0000      1.0000    
 ac                 48.0000      48.0000     48.0000     48.0000    
 temp               25.0000      25.0000     25.0000     25.0000    
 l                   0.           0.          0.          0.        
 w                   0.           0.          0.          0.        
 cap                 0.           0.          0.          0.        
 noise               1.0000       1.0000      1.0000      1.0000    
  
  
                                                                    
 element name        0:r20        0:r21       0:r22       0:r23     
 node1               0:net392     0:net390    0:net388    0:net386  
 node2               0:net0645    0:net452    0:net460    0:net0654 
 model                                                              
 res eff            48.0000      48.0000     48.0000     48.0000    
 tc1                 0.           0.          0.          0.        
 tc2                 0.           0.          0.          0.        
 scale               1.0000       1.0000      1.0000      1.0000    
 m                   1.0000       1.0000      1.0000      1.0000    
 ac                 48.0000      48.0000     48.0000     48.0000    
 temp               25.0000      25.0000     25.0000     25.0000    
 l                   0.           0.          0.          0.        
 w                   0.           0.          0.          0.        
 cap                 0.           0.          0.          0.        
 noise               1.0000       1.0000      1.0000      1.0000    
  
  
                                                                    
 element name        0:r24        0:r25       0:r26       0:r27     
 node1               0:net384     0:net382    0:net380    0:net378  
 node2               0:net0621    0:net456    0:net458    0:net0630 
 model                                                              
 res eff            48.0000      48.0000     48.0000     48.0000    
 tc1                 0.           0.          0.          0.        
 tc2                 0.           0.          0.          0.        
 scale               1.0000       1.0000      1.0000      1.0000    
 m                   1.0000       1.0000      1.0000      1.0000    
 ac                 48.0000      48.0000     48.0000     48.0000    
 temp               25.0000      25.0000     25.0000     25.0000    
 l                   0.           0.          0.          0.        
 w                   0.           0.          0.          0.        
 cap                 0.           0.          0.          0.        
 noise               1.0000       1.0000      1.0000      1.0000    
  
  
                                                                    
 element name        0:r28        0:r29       0:r30       0:r31     
 node1               0:net376     0:net374    0:net372    0:net370  
 node2               0:net0642    0:net450    0:net432    0:net0633 
 model                                                              
 res eff            48.0000      48.0000     48.0000     48.0000    
 tc1                 0.           0.          0.          0.        
 tc2                 0.           0.          0.          0.        
 scale               1.0000       1.0000      1.0000      1.0000    
 m                   1.0000       1.0000      1.0000      1.0000    
 ac                 48.0000      48.0000     48.0000     48.0000    
 temp               25.0000      25.0000     25.0000     25.0000    
 l                   0.           0.          0.          0.        
 w                   0.           0.          0.          0.        
 cap                 0.           0.          0.          0.        
 noise               1.0000       1.0000      1.0000      1.0000    
  
  
                                                                    
 element name        0:r32        0:r33       0:r34       0:r35     
 node1               0:net368     0:net366    0:net364    0:net362  
 node2               0:net0669    0:net436    0:net434    0:net0678 
 model                                                              
 res eff            48.0000      48.0000     48.0000     48.0000    
 tc1                 0.           0.          0.          0.        
 tc2                 0.           0.          0.          0.        
 scale               1.0000       1.0000      1.0000      1.0000    
 m                   1.0000       1.0000      1.0000      1.0000    
 ac                 48.0000      48.0000     48.0000     48.0000    
 temp               25.0000      25.0000     25.0000     25.0000    
 l                   0.           0.          0.          0.        
 w                   0.           0.          0.          0.        
 cap                 0.           0.          0.          0.        
 noise               1.0000       1.0000      1.0000      1.0000    
  
  
                                                                    
 element name        0:r36        0:r37       0:r38       0:r39     
 node1               0:net360     0:net358    0:net356    0:net354  
 node2               0:net0690    0:net444    0:net446    0:net0681 
 model                                                              
 res eff            48.0000      48.0000     48.0000     48.0000    
 tc1                 0.           0.          0.          0.        
 tc2                 0.           0.          0.          0.        
 scale               1.0000       1.0000      1.0000      1.0000    
 m                   1.0000       1.0000      1.0000      1.0000    
 ac                 48.0000      48.0000     48.0000     48.0000    
 temp               25.0000      25.0000     25.0000     25.0000    
 l                   0.           0.          0.          0.        
 w                   0.           0.          0.          0.        
 cap                 0.           0.          0.          0.        
 noise               1.0000       1.0000      1.0000      1.0000    
  
  
                                                                    
 element name        0:r40        0:r41       0:r42       0:r43     
 node1               0:net352     0:net350    0:net348    0:net346  
 node2               0:net0714    0:net462    0:net442    0:net0705 
 model                                                              
 res eff            48.0000      48.0000     48.0000     48.0000    
 tc1                 0.           0.          0.          0.        
 tc2                 0.           0.          0.          0.        
 scale               1.0000       1.0000      1.0000      1.0000    
 m                   1.0000       1.0000      1.0000      1.0000    
 ac                 48.0000      48.0000     48.0000     48.0000    
 temp               25.0000      25.0000     25.0000     25.0000    
 l                   0.           0.          0.          0.        
 w                   0.           0.          0.          0.        
 cap                 0.           0.          0.          0.        
 noise               1.0000       1.0000      1.0000      1.0000    
  
  
                                                                    
 element name        0:r44        0:r45       0:r46       0:r47     
 node1               0:net344     0:net342    0:net340    0:net338  
 node2               0:net0693    0:net438    0:net440    0:net0702 
 model                                                              
 res eff            48.0000      48.0000     48.0000     48.0000    
 tc1                 0.           0.          0.          0.        
 tc2                 0.           0.          0.          0.        
 scale               1.0000       1.0000      1.0000      1.0000    
 m                   1.0000       1.0000      1.0000      1.0000    
 ac                 48.0000      48.0000     48.0000     48.0000    
 temp               25.0000      25.0000     25.0000     25.0000    
 l                   0.           0.          0.          0.        
 w                   0.           0.          0.          0.        
 cap                 0.           0.          0.          0.        
 noise               1.0000       1.0000      1.0000      1.0000    
  
  
                                                                  
 element name        0:r1        0:r2        0:r3        0:r4     
 node1               0:wl2       0:wl3       0:wl4       0:wl5    
 node2               0:net401    0:net403    0:net405    0:net407 
 model                                                            
 res eff            72.0000     72.0000     72.0000     72.0000   
 tc1                 0.          0.          0.          0.       
 tc2                 0.          0.          0.          0.       
 scale               1.0000      1.0000      1.0000      1.0000   
 m                   1.0000      1.0000      1.0000      1.0000   
 ac                 72.0000     72.0000     72.0000     72.0000   
 temp               25.0000     25.0000     25.0000     25.0000   
 l                   0.          0.          0.          0.       
 w                   0.          0.          0.          0.       
 cap                 0.          0.          0.          0.       
 noise               1.0000      1.0000      1.0000      1.0000   
  
  
                                                                  
 element name        0:r5        0:r0        0:r6        0:r7     
 node1               0:wl6       0:wl0       0:wl7       0:wl8    
 node2               0:net409    0:net411    0:net413    0:net415 
 model                                                            
 res eff            72.0000     72.0000     72.0000     72.0000   
 tc1                 0.          0.          0.          0.       
 tc2                 0.          0.          0.          0.       
 scale               1.0000      1.0000      1.0000      1.0000   
 m                   1.0000      1.0000      1.0000      1.0000   
 ac                 72.0000     72.0000     72.0000     72.0000   
 temp               25.0000     25.0000     25.0000     25.0000   
 l                   0.          0.          0.          0.       
 w                   0.          0.          0.          0.       
 cap                 0.          0.          0.          0.       
 noise               1.0000      1.0000      1.0000      1.0000   
  
  
                                                                  
 element name        0:r8        0:r9        0:r10       0:r11    
 node1               0:wl9       0:wl10      0:wl11      0:wl12   
 node2               0:net417    0:net419    0:net421    0:net423 
 model                                                            
 res eff            72.0000     72.0000     72.0000     72.0000   
 tc1                 0.          0.          0.          0.       
 tc2                 0.          0.          0.          0.       
 scale               1.0000      1.0000      1.0000      1.0000   
 m                   1.0000      1.0000      1.0000      1.0000   
 ac                 72.0000     72.0000     72.0000     72.0000   
 temp               25.0000     25.0000     25.0000     25.0000   
 l                   0.          0.          0.          0.       
 w                   0.          0.          0.          0.       
 cap                 0.          0.          0.          0.       
 noise               1.0000      1.0000      1.0000      1.0000   
  
  
                                                                  
 element name        0:r12       0:r13       0:r14       0:r48    
 node1               0:wl13      0:wl14      0:wl15      0:wl1    
 node2               0:net425    0:net427    0:net429    0:net335 
 model                                                            
 res eff            72.0000     72.0000     72.0000     72.0000   
 tc1                 0.          0.          0.          0.       
 tc2                 0.          0.          0.          0.       
 scale               1.0000      1.0000      1.0000      1.0000   
 m                   1.0000      1.0000      1.0000      1.0000   
 ac                 72.0000     72.0000     72.0000     72.0000   
 temp               25.0000     25.0000     25.0000     25.0000   
 l                   0.          0.          0.          0.       
 w                   0.          0.          0.          0.       
 cap                 0.          0.          0.          0.       
 noise               1.0000      1.0000      1.0000      1.0000   


 **** capacitors
  
  
                                                                   
 element name        0:c30       0:c31        0:c35       0:c34    
 node1               0:net400    0:net0666    0:net398    0:net448 
 node2               0:0         0:0          0:0         0:0      
 model                                                             
 cap eff            15.8000f    15.8000f     15.8000f    15.8000f  
 tc1                 0.          0.           0.          0.       
 tc2                 0.          0.           0.          0.       
 scale               1.0000      1.0000       1.0000      1.0000   
 ic                  0.          0.           0.          0.       
 m                   1.0000      1.0000       1.0000      1.0000   
 w                   0.          0.           0.          0.       
 l                   0.          0.           0.          0.       
 temp               25.0000     25.0000      25.0000     25.0000   
  
  
                                                                   
 element name        0:c36       0:c37       0:c38        0:c39    
 node1               0:net396    0:net454    0:net0657    0:net394 
 node2               0:0         0:0         0:0          0:0      
 model                                                             
 cap eff            15.8000f    15.8000f    15.8000f     15.8000f  
 tc1                 0.          0.          0.           0.       
 tc2                 0.          0.          0.           0.       
 scale               1.0000      1.0000      1.0000       1.0000   
 ic                  0.          0.          0.           0.       
 m                   1.0000      1.0000      1.0000       1.0000   
 w                   0.          0.          0.           0.       
 l                   0.          0.          0.           0.       
 temp               25.0000     25.0000     25.0000      25.0000   
  
  
                                                                   
 element name        0:c40       0:c41        0:c42       0:c43    
 node1               0:net392    0:net0645    0:net452    0:net390 
 node2               0:0         0:0          0:0         0:0      
 model                                                             
 cap eff            15.8000f    15.8000f     15.8000f    15.8000f  
 tc1                 0.          0.           0.          0.       
 tc2                 0.          0.           0.          0.       
 scale               1.0000      1.0000       1.0000      1.0000   
 ic                  0.          0.           0.          0.       
 m                   1.0000      1.0000       1.0000      1.0000   
 w                   0.          0.           0.          0.       
 l                   0.          0.           0.          0.       
 temp               25.0000     25.0000      25.0000     25.0000   
  
  
                                                                   
 element name        0:c44       0:c45       0:c46        0:c47    
 node1               0:net388    0:net460    0:net0654    0:net386 
 node2               0:0         0:0         0:0          0:0      
 model                                                             
 cap eff            15.8000f    15.8000f    15.8000f     15.8000f  
 tc1                 0.          0.          0.           0.       
 tc2                 0.          0.          0.           0.       
 scale               1.0000      1.0000      1.0000       1.0000   
 ic                  0.          0.          0.           0.       
 m                   1.0000      1.0000      1.0000       1.0000   
 w                   0.          0.          0.           0.       
 l                   0.          0.          0.           0.       
 temp               25.0000     25.0000     25.0000      25.0000   
  
  
                                                                   
 element name        0:c48       0:c49        0:c50       0:c51    
 node1               0:net384    0:net0621    0:net456    0:net382 
 node2               0:0         0:0          0:0         0:0      
 model                                                             
 cap eff            15.8000f    15.8000f     15.8000f    15.8000f  
 tc1                 0.          0.           0.          0.       
 tc2                 0.          0.           0.          0.       
 scale               1.0000      1.0000       1.0000      1.0000   
 ic                  0.          0.           0.          0.       
 m                   1.0000      1.0000       1.0000      1.0000   
 w                   0.          0.           0.          0.       
 l                   0.          0.           0.          0.       
 temp               25.0000     25.0000      25.0000     25.0000   
  
  
                                                                   
 element name        0:c52       0:c53       0:c54        0:c55    
 node1               0:net380    0:net458    0:net0630    0:net378 
 node2               0:0         0:0         0:0          0:0      
 model                                                             
 cap eff            15.8000f    15.8000f    15.8000f     15.8000f  
 tc1                 0.          0.          0.           0.       
 tc2                 0.          0.          0.           0.       
 scale               1.0000      1.0000      1.0000       1.0000   
 ic                  0.          0.          0.           0.       
 m                   1.0000      1.0000      1.0000       1.0000   
 w                   0.          0.          0.           0.       
 l                   0.          0.          0.           0.       
 temp               25.0000     25.0000     25.0000      25.0000   
  
  
                                                                   
 element name        0:c56       0:c57        0:c58       0:c59    
 node1               0:net376    0:net0642    0:net450    0:net374 
 node2               0:0         0:0          0:0         0:0      
 model                                                             
 cap eff            15.8000f    15.8000f     15.8000f    15.8000f  
 tc1                 0.          0.           0.          0.       
 tc2                 0.          0.           0.          0.       
 scale               1.0000      1.0000       1.0000      1.0000   
 ic                  0.          0.           0.          0.       
 m                   1.0000      1.0000       1.0000      1.0000   
 w                   0.          0.           0.          0.       
 l                   0.          0.           0.          0.       
 temp               25.0000     25.0000      25.0000     25.0000   
  
  
                                                                   
 element name        0:c60       0:c61       0:c62        0:c63    
 node1               0:net372    0:net432    0:net0633    0:net370 
 node2               0:0         0:0         0:0          0:0      
 model                                                             
 cap eff            15.8000f    15.8000f    15.8000f     15.8000f  
 tc1                 0.          0.          0.           0.       
 tc2                 0.          0.          0.           0.       
 scale               1.0000      1.0000      1.0000       1.0000   
 ic                  0.          0.          0.           0.       
 m                   1.0000      1.0000      1.0000       1.0000   
 w                   0.          0.          0.           0.       
 l                   0.          0.          0.           0.       
 temp               25.0000     25.0000     25.0000      25.0000   
  
  
                                                                   
 element name        0:c64       0:c65        0:c66       0:c67    
 node1               0:net368    0:net0669    0:net436    0:net366 
 node2               0:0         0:0          0:0         0:0      
 model                                                             
 cap eff            15.8000f    15.8000f     15.8000f    15.8000f  
 tc1                 0.          0.           0.          0.       
 tc2                 0.          0.           0.          0.       
 scale               1.0000      1.0000       1.0000      1.0000   
 ic                  0.          0.           0.          0.       
 m                   1.0000      1.0000       1.0000      1.0000   
 w                   0.          0.           0.          0.       
 l                   0.          0.           0.          0.       
 temp               25.0000     25.0000      25.0000     25.0000   
  
  
                                                                   
 element name        0:c68       0:c69       0:c70        0:c71    
 node1               0:net364    0:net434    0:net0678    0:net362 
 node2               0:0         0:0         0:0          0:0      
 model                                                             
 cap eff            15.8000f    15.8000f    15.8000f     15.8000f  
 tc1                 0.          0.          0.           0.       
 tc2                 0.          0.          0.           0.       
 scale               1.0000      1.0000      1.0000       1.0000   
 ic                  0.          0.          0.           0.       
 m                   1.0000      1.0000      1.0000       1.0000   
 w                   0.          0.          0.           0.       
 l                   0.          0.          0.           0.       
 temp               25.0000     25.0000     25.0000      25.0000   
  
  
                                                                   
 element name        0:c72       0:c73        0:c74       0:c75    
 node1               0:net360    0:net0690    0:net444    0:net358 
 node2               0:0         0:0          0:0         0:0      
 model                                                             
 cap eff            15.8000f    15.8000f     15.8000f    15.8000f  
 tc1                 0.          0.           0.          0.       
 tc2                 0.          0.           0.          0.       
 scale               1.0000      1.0000       1.0000      1.0000   
 ic                  0.          0.           0.          0.       
 m                   1.0000      1.0000       1.0000      1.0000   
 w                   0.          0.           0.          0.       
 l                   0.          0.           0.          0.       
 temp               25.0000     25.0000      25.0000     25.0000   
  
  
                                                                   
 element name        0:c76       0:c77       0:c78        0:c79    
 node1               0:net356    0:net446    0:net0681    0:net354 
 node2               0:0         0:0         0:0          0:0      
 model                                                             
 cap eff            15.8000f    15.8000f    15.8000f     15.8000f  
 tc1                 0.          0.          0.           0.       
 tc2                 0.          0.          0.           0.       
 scale               1.0000      1.0000      1.0000       1.0000   
 ic                  0.          0.          0.           0.       
 m                   1.0000      1.0000      1.0000       1.0000   
 w                   0.          0.          0.           0.       
 l                   0.          0.          0.           0.       
 temp               25.0000     25.0000     25.0000      25.0000   
  
  
                                                                   
 element name        0:c80       0:c81        0:c82       0:c83    
 node1               0:net352    0:net0714    0:net462    0:net350 
 node2               0:0         0:0          0:0         0:0      
 model                                                             
 cap eff            15.8000f    15.8000f     15.8000f    15.8000f  
 tc1                 0.          0.           0.          0.       
 tc2                 0.          0.           0.          0.       
 scale               1.0000      1.0000       1.0000      1.0000   
 ic                  0.          0.           0.          0.       
 m                   1.0000      1.0000       1.0000      1.0000   
 w                   0.          0.           0.          0.       
 l                   0.          0.           0.          0.       
 temp               25.0000     25.0000      25.0000     25.0000   
  
  
                                                                   
 element name        0:c84       0:c85       0:c86        0:c87    
 node1               0:net348    0:net442    0:net0705    0:net346 
 node2               0:0         0:0         0:0          0:0      
 model                                                             
 cap eff            15.8000f    15.8000f    15.8000f     15.8000f  
 tc1                 0.          0.          0.           0.       
 tc2                 0.          0.          0.           0.       
 scale               1.0000      1.0000      1.0000       1.0000   
 ic                  0.          0.          0.           0.       
 m                   1.0000      1.0000      1.0000       1.0000   
 w                   0.          0.          0.           0.       
 l                   0.          0.          0.           0.       
 temp               25.0000     25.0000     25.0000      25.0000   
  
  
                                                                   
 element name        0:c88       0:c89        0:c90       0:c91    
 node1               0:net344    0:net0693    0:net438    0:net342 
 node2               0:0         0:0          0:0         0:0      
 model                                                             
 cap eff            15.8000f    15.8000f     15.8000f    15.8000f  
 tc1                 0.          0.           0.          0.       
 tc2                 0.          0.           0.          0.       
 scale               1.0000      1.0000       1.0000      1.0000   
 ic                  0.          0.           0.          0.       
 m                   1.0000      1.0000       1.0000      1.0000   
 w                   0.          0.           0.          0.       
 l                   0.          0.           0.          0.       
 temp               25.0000     25.0000      25.0000     25.0000   
  
  
                                                                   
 element name        0:c92       0:c93       0:c94        0:c95    
 node1               0:net340    0:net440    0:net0702    0:net338 
 node2               0:0         0:0         0:0          0:0      
 model                                                             
 cap eff            15.8000f    15.8000f    15.8000f     15.8000f  
 tc1                 0.          0.          0.           0.       
 tc2                 0.          0.          0.           0.       
 scale               1.0000      1.0000      1.0000       1.0000   
 ic                  0.          0.          0.           0.       
 m                   1.0000      1.0000      1.0000       1.0000   
 w                   0.          0.          0.           0.       
 l                   0.          0.          0.           0.       
 temp               25.0000     25.0000     25.0000      25.0000   
  
  
                                                                
 element name        0:c2        0:c3       0:c4       0:c5     
 node1               0:net401    0:wl2      0:wl3      0:net403 
 node2               0:0         0:0        0:0        0:0      
 model                                                          
 cap eff            23.7000f    23.7000f   23.7000f   23.7000f  
 tc1                 0.          0.         0.         0.       
 tc2                 0.          0.         0.         0.       
 scale               1.0000      1.0000     1.0000     1.0000   
 ic                  0.          0.         0.         0.       
 m                   1.0000      1.0000     1.0000     1.0000   
 w                   0.          0.         0.         0.       
 l                   0.          0.         0.         0.       
 temp               25.0000     25.0000    25.0000    25.0000   
  
  
                                                                
 element name        0:c1        0:c6        0:c7       0:c8    
 node1               0:net411    0:net405    0:wl4      0:wl5   
 node2               0:0         0:0         0:0        0:0     
 model                                                          
 cap eff            23.7000f    23.7000f    23.7000f   23.7000f 
 tc1                 0.          0.          0.         0.      
 tc2                 0.          0.          0.         0.      
 scale               1.0000      1.0000      1.0000     1.0000  
 ic                  0.          0.          0.         0.      
 m                   1.0000      1.0000      1.0000     1.0000  
 w                   0.          0.          0.         0.      
 l                   0.          0.          0.         0.      
 temp               25.0000     25.0000     25.0000    25.0000  
  
  
                                                                
 element name        0:c9        0:c0       0:c10      0:c11    
 node1               0:net407    0:wl0      0:wl6      0:net409 
 node2               0:0         0:0        0:0        0:0      
 model                                                          
 cap eff            23.7000f    23.7000f   23.7000f   23.7000f  
 tc1                 0.          0.         0.         0.       
 tc2                 0.          0.         0.         0.       
 scale               1.0000      1.0000     1.0000     1.0000   
 ic                  0.          0.         0.         0.       
 m                   1.0000      1.0000     1.0000     1.0000   
 w                   0.          0.         0.         0.       
 l                   0.          0.         0.         0.       
 temp               25.0000     25.0000    25.0000    25.0000   
  
  
                                                                
 element name        0:c12       0:c13      0:c14      0:c15    
 node1               0:net413    0:wl7      0:wl8      0:net415 
 node2               0:0         0:0        0:0        0:0      
 model                                                          
 cap eff            23.7000f    23.7000f   23.7000f   23.7000f  
 tc1                 0.          0.         0.         0.       
 tc2                 0.          0.         0.         0.       
 scale               1.0000      1.0000     1.0000     1.0000   
 ic                  0.          0.         0.         0.       
 m                   1.0000      1.0000     1.0000     1.0000   
 w                   0.          0.         0.         0.       
 l                   0.          0.         0.         0.       
 temp               25.0000     25.0000    25.0000    25.0000   
  
  
                                                                
 element name        0:c16       0:c17      0:c18      0:c19    
 node1               0:net417    0:wl9      0:wl10     0:net419 
 node2               0:0         0:0        0:0        0:0      
 model                                                          
 cap eff            23.7000f    23.7000f   23.7000f   23.7000f  
 tc1                 0.          0.         0.         0.       
 tc2                 0.          0.         0.         0.       
 scale               1.0000      1.0000     1.0000     1.0000   
 ic                  0.          0.         0.         0.       
 m                   1.0000      1.0000     1.0000     1.0000   
 w                   0.          0.         0.         0.       
 l                   0.          0.         0.         0.       
 temp               25.0000     25.0000    25.0000    25.0000   
  
  
                                                                
 element name        0:c20       0:c21      0:c22      0:c23    
 node1               0:net421    0:wl11     0:wl12     0:net423 
 node2               0:0         0:0        0:0        0:0      
 model                                                          
 cap eff            23.7000f    23.7000f   23.7000f   23.7000f  
 tc1                 0.          0.         0.         0.       
 tc2                 0.          0.         0.         0.       
 scale               1.0000      1.0000     1.0000     1.0000   
 ic                  0.          0.         0.         0.       
 m                   1.0000      1.0000     1.0000     1.0000   
 w                   0.          0.         0.         0.       
 l                   0.          0.         0.         0.       
 temp               25.0000     25.0000    25.0000    25.0000   
  
  
                                                                
 element name        0:c24       0:c25      0:c26      0:c27    
 node1               0:net425    0:wl13     0:wl14     0:net427 
 node2               0:0         0:0        0:0        0:0      
 model                                                          
 cap eff            23.7000f    23.7000f   23.7000f   23.7000f  
 tc1                 0.          0.         0.         0.       
 tc2                 0.          0.         0.         0.       
 scale               1.0000      1.0000     1.0000     1.0000   
 ic                  0.          0.         0.         0.       
 m                   1.0000      1.0000     1.0000     1.0000   
 w                   0.          0.         0.         0.       
 l                   0.          0.         0.         0.       
 temp               25.0000     25.0000    25.0000    25.0000   
  
  
                                                                
 element name        0:c28       0:c29      0:c96       0:c97   
 node1               0:net429    0:wl15     0:net335    0:wl1   
 node2               0:0         0:0        0:0         0:0     
 model                                                          
 cap eff            23.7000f    23.7000f   23.7000f    23.7000f 
 tc1                 0.          0.         0.          0.      
 tc2                 0.          0.         0.          0.      
 scale               1.0000      1.0000     1.0000      1.0000  
 ic                  0.          0.         0.          0.      
 m                   1.0000      1.0000     1.0000      1.0000  
 w                   0.          0.         0.          0.      
 l                   0.          0.         0.          0.      
 temp               25.0000     25.0000    25.0000     25.0000  


 **** independent sources

     name         node1        node2      dc volt    ac mag    ac phase    type
  v0  wr0               0                    0.         0.         0.      pulse
             initial value     0.     
             pulsed value.     2.5000 
             delay time...    20.0000n
             risetime.....   200.0000p
             falltime.....   200.0000p
             width........    10.0000n
             period.......   200.0000n

  v1  wr1               0                    0.         0.         0.      pulse
             initial value     0.     
             pulsed value.     2.5000 
             delay time...    20.0000n
             risetime.....   200.0000p
             falltime.....   200.0000p
             width........    10.0000n
             period.......   200.0000n

  v10  wr10              0                    0.         0.         0.      pulse
             initial value     0.     
             pulsed value.     2.5000 
             delay time...    20.0000n
             risetime.....   200.0000p
             falltime.....   200.0000p
             width........    10.0000n
             period.......   200.0000n

  v11  wr11              0                    0.         0.         0.      pulse
             initial value     0.     
             pulsed value.     2.5000 
             delay time...    20.0000n
             risetime.....   200.0000p
             falltime.....   200.0000p
             width........    10.0000n
             period.......   200.0000n

  v12  wr12              0                    0.         0.         0.      pulse
             initial value     0.     
             pulsed value.     2.5000 
             delay time...    20.0000n
             risetime.....   200.0000p
             falltime.....   200.0000p
             width........    10.0000n
             period.......   200.0000n

  v13  wr13              0                    0.         0.         0.      pulse
             initial value     0.     
             pulsed value.     2.5000 
             delay time...    20.0000n
             risetime.....   200.0000p
             falltime.....   200.0000p
             width........    10.0000n
             period.......   200.0000n

  v14  wr14              0                    0.         0.         0.      pulse
             initial value     0.     
             pulsed value.     2.5000 
             delay time...    20.0000n
             risetime.....   200.0000p
             falltime.....   200.0000p
             width........    10.0000n
             period.......   200.0000n

  v15  wr15              0                    0.         0.         0.      pulse
             initial value     0.     
             pulsed value.     2.5000 
             delay time...    20.0000n
             risetime.....   200.0000p
             falltime.....   200.0000p
             width........    10.0000n
             period.......   200.0000n

  v2  wr2               0                    0.         0.         0.      pulse
             initial value     0.     
             pulsed value.     2.5000 
             delay time...    20.0000n
             risetime.....   200.0000p
             falltime.....   200.0000p
             width........    10.0000n
             period.......   200.0000n

  v3  wr3               0                    0.         0.         0.      pulse
             initial value     0.     
             pulsed value.     2.5000 
             delay time...    20.0000n
             risetime.....   200.0000p
             falltime.....   200.0000p
             width........    10.0000n
             period.......   200.0000n

  v4  wr4               0                    0.         0.         0.      pulse
             initial value     0.     
             pulsed value.     2.5000 
             delay time...    20.0000n
             risetime.....   200.0000p
             falltime.....   200.0000p
             width........    10.0000n
             period.......   200.0000n

  v5  wr5               0                    0.         0.         0.      pulse
             initial value     0.     
             pulsed value.     2.5000 
             delay time...    20.0000n
[...]
 + 23:net17   =   2.4722   23:net20   =   1.8350   24:net17   =   2.4722 
 + 24:net20   =   1.8350   25:net17   =   2.4722   25:net20   =   1.8350 
 + 26:net17   =   2.4722   26:net20   =   1.8350   27:net17   =   2.4722 
 + 27:net20   =   1.8350   28:net17   =   2.4722   28:net20   =   1.8350 
 + 29:net17   =   2.4722   29:net20   =   1.8350   30:net17   =   2.4722 
 + 30:net20   =   1.8350   31:net17   =   2.4722   31:net20   =   1.8350 
 + 32:net17   =   2.4722   32:net20   =   1.8350   33:1       =   2.5000 
 + 33:net10   =  60.0967m  33:net21   =   2.5000   33:net6    =  20.7178n
 + 34:1       =   2.5000   34:net10   =  36.9829n  34:net21   =   2.4779 
 + 34:net6    =   2.5000   35:1       =   2.5000   35:net10   =  60.0967m
 + 35:net21   =   2.5000   35:net6    =  20.7178n  36:1       =   2.5000 
 + 36:net10   =  36.9829n  36:net21   =   2.4779   36:net6    =   2.5000 
 + 37:1       =   2.5000   37:net10   =  36.9829n  37:net21   =   2.4779 
 + 37:net6    =   2.5000   38:1       =   2.5000   38:net10   =  60.0967m
 + 38:net21   =   2.5000   38:net6    =  20.7178n  39:1       =   2.5000 
 + 39:net10   =  36.9829n  39:net21   =   2.4779   39:net6    =   2.5000 
 + 40:1       =   2.5000   40:net10   =  36.9829n  40:net21   =   2.4779 
 + 40:net6    =   2.5000   41:1       =   2.5000   41:net10   =  60.0967m
 + 41:net21   =   2.5000   41:net6    =  20.7178n  42:1       =   2.5000 
 + 42:net10   =  60.0967m  42:net21   =   2.5000   42:net6    =  20.7178n
 + 43:1       =   2.5000   43:net10   =  36.9829n  43:net21   =   2.4779 
 + 43:net6    =   2.5000   44:1       =   2.5000   44:net10   =  60.0967m
 + 44:net21   =   2.5000   44:net6    =  20.7178n  45:1       =   2.5000 
 + 45:net10   =  36.9829n  45:net21   =   2.4779   45:net6    =   2.5000 
 + 46:1       =   2.5000   46:net10   =  60.0967m  46:net21   =   2.5000 
 + 46:net6    =  20.7178n  47:1       =   2.5000   47:net10   =  60.0967m
 + 47:net21   =   2.5000   47:net6    =  20.7178n  48:1       =   2.5000 
 + 48:net10   =  36.9829n  48:net21   =   2.4779   48:net6    =   2.5000 
 + 49:1       =   2.5000   49:net10   =  60.0967m  49:net21   =   2.5000 
 + 49:net6    =  20.7178n  50:1       =   2.5000   50:net10   =  60.0967m
 + 50:net21   =   2.5000   50:net6    =  20.7178n  51:1       =   2.5000 
 + 51:net10   =  60.0967m  51:net21   =   2.5000   51:net6    =  20.7178n
 + 52:1       =   2.5000   52:net10   =  36.9829n  52:net21   =   2.4779 
 + 52:net6    =   2.5000   53:1       =   2.5000   53:net10   =  60.0967m
 + 53:net21   =   2.5000   53:net6    =  20.7178n  54:1       =   2.5000 
 + 54:net10   =  36.9829n  54:net21   =   2.4779   54:net6    =   2.5000 
 + 55:1       =   2.5000   55:net10   =  36.9829n  55:net21   =   2.4779 
 + 55:net6    =   2.5000   56:1       =   2.5000   56:net10   =  60.0967m
 + 56:net21   =   2.5000   56:net6    =  20.7178n  57:1       =   2.5000 
 + 57:net10   =  36.9829n  57:net21   =   2.4779   57:net6    =   2.5000 
 + 58:1       =   2.5000   58:net10   =  36.9829n  58:net21   =   2.4779 
 + 58:net6    =   2.5000   59:1       =   2.5000   59:net10   =  36.9829n
 + 59:net21   =   2.4779   59:net6    =   2.5000   60:1       =   2.5000 
 + 60:net10   =  60.0967m  60:net21   =   2.5000   60:net6    =  20.7178n
 + 61:1       =   2.5000   61:net10   =  36.9829n  61:net21   =   2.4779 
 + 61:net6    =   2.5000   62:1       =   2.5000   62:net10   =  60.0967m
 + 62:net21   =   2.5000   62:net6    =  20.7178n  63:1       =   2.5000 
 + 63:net10   =  60.0967m  63:net21   =   2.5000   63:net6    =  20.7178n
 + 64:1       =   2.5000   64:net10   =  36.9829n  64:net21   =   2.4779 
 + 64:net6    =   2.5000   81:net14   =   1.2534   81:net7    =   1.2534 
 + 82:net14   =   1.0548   82:net7    =   1.0548   83:net14   =   1.0548 
 + 83:net7    =   1.0548   84:net14   =   1.0548   84:net7    =   1.0548 
 + 85:net14   =   1.0548   85:net7    =   1.0548   86:net14   =   1.0548 
 + 86:net7    =   1.0548   87:net14   =   1.0548   87:net7    =   1.0548 
 + 88:net14   =   1.0548   88:net7    =   1.0548   89:net14   =   1.0548 
 + 89:net7    =   1.0548   90:net14   =   1.0548   90:net7    =   1.0548 
 + 91:net14   =   1.0548   91:net7    =   1.0548   92:net14   =   1.0548 
 + 92:net7    =   1.0548   93:net14   =   1.0548   93:net7    =   1.0548 
 + 94:net14   =   1.0548   94:net7    =   1.0548   95:net14   =   1.0548 
 + 95:net7    =   1.0548   96:net14   =   1.0548   96:net7    =   1.0548 
 + 97:net14   =   1.0548   97:net7    =   1.0548   98:net14   =   1.0548 
 + 98:net7    =   1.0548   99:net14   =   1.0548   99:net7    =   1.0548 
 +100:net14   =   1.0548  100:net7    =   1.0548  101:net14   =   1.0548 
 +101:net7    =   1.0548  102:net14   =   1.0548  102:net7    =   1.0548 
 +103:net14   =   1.0548  103:net7    =   1.0548  104:net14   =   1.0548 
 +104:net7    =   1.0548  105:net14   =   1.0548  105:net7    =   1.0548 
 +106:net14   =   1.0548  106:net7    =   1.0548  107:net14   =   1.0548 
 +107:net7    =   1.0548  108:net14   =   1.0548  108:net7    =   1.0548 
 +109:net14   =   1.0548  109:net7    =   1.0548  110:net14   =   1.0548 
 +110:net7    =   1.0548  111:net14   =   1.0548  111:net7    =   1.0548 
 +112:net14   =   1.2534  112:net7    =   1.2534  113:net14   =   1.2534 
 +113:net7    =   1.2534  114:net14   =   1.0548  114:net7    =   1.0548 
 +115:net14   =   1.0548  115:net7    =   1.0548  116:net14   =   1.0548 
 +116:net7    =   1.0548  117:net14   =   1.0548  117:net7    =   1.0548 
 +118:net14   =   1.0548  118:net7    =   1.0548  119:net14   =   1.0548 
 +119:net7    =   1.0548  120:net14   =   1.0548  120:net7    =   1.0548 
 +121:net14   =   1.0548  121:net7    =   1.0548  122:net14   =   1.0548 
 +122:net7    =   1.0548  123:net14   =   1.0548  123:net7    =   1.0548 
 +124:net14   =   1.0548  124:net7    =   1.0548  125:net14   =   1.0548 
 +125:net7    =   1.0548  126:net14   =   1.0548  126:net7    =   1.0548 
 +127:net14   =   1.0548  127:net7    =   1.0548  128:net14   =   1.0548 
 +128:net7    =   1.0548  129:net14   =   1.0548  129:net7    =   1.0548 
 +130:net14   =   1.0548  130:net7    =   1.0548  131:net14   =   1.0548 
 +131:net7    =   1.0548  132:net14   =   1.0548  132:net7    =   1.0548 
 +133:net14   =   1.0548  133:net7    =   1.0548  134:net14   =   1.0548 
 +134:net7    =   1.0548  135:net14   =   1.0548  135:net7    =   1.0548 
 +136:net14   =   1.0548  136:net7    =   1.0548  137:net14   =   1.0548 
 +137:net7    =   1.0548  138:net14   =   1.0548  138:net7    =   1.0548 
 +139:net14   =   1.0548  139:net7    =   1.0548  140:net14   =   1.0548 
 +140:net7    =   1.0548  141:net14   =   1.0548  141:net7    =   1.0548 
 +142:net14   =   1.0548  142:net7    =   1.0548  143:net14   =   1.0548 
 +143:net7    =   1.0548  144:net14   =   1.2534  144:net7    =   1.2534 
 +145:net14   =   1.2534  145:net7    =   1.2534  146:net14   =   1.0548 
 +146:net7    =   1.0548  147:net14   =   1.0548  147:net7    =   1.0548 
 +148:net14   =   1.0548  148:net7    =   1.0548  149:net14   =   1.0548 
 +149:net7    =   1.0548  150:net14   =   1.0548  150:net7    =   1.0548 
 +151:net14   =   1.0548  151:net7    =   1.0548  152:net14   =   1.0548 
 +152:net7    =   1.0548  153:net14   =   1.0548  153:net7    =   1.0548 
 +154:net14   =   1.0548  154:net7    =   1.0548  155:net14   =   1.0548 
 +155:net7    =   1.0548  156:net14   =   1.0548  156:net7    =   1.0548 
 +157:net14   =   1.0548  157:net7    =   1.0548  158:net14   =   1.0548 
 +158:net7    =   1.0548  159:net14   =   1.0548  159:net7    =   1.0548 
 +160:net14   =   1.0548  160:net7    =   1.0548  161:net14   =   1.0548 
 +161:net7    =   1.0548  162:net14   =   1.0548  162:net7    =   1.0548 
 +163:net14   =   1.0548  163:net7    =   1.0548  164:net14   =   1.0548 
 +164:net7    =   1.0548  165:net14   =   1.0548  165:net7    =   1.0548 
 +166:net14   =   1.0548  166:net7    =   1.0548  167:net14   =   1.0548 
 +167:net7    =   1.0548  168:net14   =   1.0548  168:net7    =   1.0548 
 +169:net14   =   1.0548  169:net7    =   1.0548  170:net14   =   1.0548 
 +170:net7    =   1.0548  171:net14   =   1.0548  171:net7    =   1.0548 
 +172:net14   =   1.0548  172:net7    =   1.0548  173:net14   =   1.0548 
 +173:net7    =   1.0548  174:net14   =   1.0548  174:net7    =   1.0548 
 +175:net14   =   1.0548  175:net7    =   1.0548  176:net14   =   1.2534 
 +176:net7    =   1.2534  177:net14   =   1.2534  177:net7    =   1.2534 
 +178:net14   =   1.0548  178:net7    =   1.0548  179:net14   =   1.0548 
 +179:net7    =   1.0548  180:net14   =   1.0548  180:net7    =   1.0548 
 +181:net14   =   1.0548  181:net7    =   1.0548  182:net14   =   1.0548 
 +182:net7    =   1.0548  183:net14   =   1.0548  183:net7    =   1.0548 
 +184:net14   =   1.0548  184:net7    =   1.0548  185:net14   =   1.0548 
 +185:net7    =   1.0548  186:net14   =   1.0548  186:net7    =   1.0548 
 +187:net14   =   1.0548  187:net7    =   1.0548  188:net14   =   1.0548 
 +188:net7    =   1.0548  189:net14   =   1.0548  189:net7    =   1.0548 
 +190:net14   =   1.0548  190:net7    =   1.0548  191:net14   =   1.0548 
 +191:net7    =   1.0548  192:net14   =   1.0548  192:net7    =   1.0548 
 +193:net14   =   1.2534  193:net7    =   1.2534  194:net14   =   1.0548 
 +194:net7    =   1.0548  195:net14   =   1.0548  195:net7    =   1.0548 
 +196:net14   =   1.0548  196:net7    =   1.0548  197:net14   =   1.0548 
 +197:net7    =   1.0548  198:net14   =   1.0548  198:net7    =   1.0548 
 +199:net14   =   1.0548  199:net7    =   1.0548  200:net14   =   1.0548 
 +200:net7    =   1.0548  201:net14   =   1.0548  201:net7    =   1.0548 
 +202:net14   =   1.0548  202:net7    =   1.0548  203:net14   =   1.0548 
 +203:net7    =   1.0548  204:net14   =   1.0548  204:net7    =   1.0548 
 +205:net14   =   1.0548  205:net7    =   1.0548  206:net14   =   1.0548 
 +206:net7    =   1.0548  207:net14   =   1.0548  207:net7    =   1.0548 
 +208:net14   =   1.0548  208:net7    =   1.0548  209:net14   =   1.0548 
 +209:net7    =   1.0548  210:net14   =   1.0548  210:net7    =   1.0548 
 +211:net14   =   1.0548  211:net7    =   1.0548  212:net14   =   1.0548 
 +212:net7    =   1.0548  213:net14   =   1.0548  213:net7    =   1.0548 
 +214:net14   =   1.0548  214:net7    =   1.0548  215:net14   =   1.0548 
 +215:net7    =   1.0548  216:net14   =   1.0548  216:net7    =   1.0548 
 +217:net14   =   1.0548  217:net7    =   1.0548  218:net14   =   1.0548 
 +218:net7    =   1.0548  219:net14   =   1.0548  219:net7    =   1.0548 
 +220:net14   =   1.0548  220:net7    =   1.0548  221:net14   =   1.0548 
 +221:net7    =   1.0548  222:net14   =   1.0548  222:net7    =   1.0548 
 +223:net14   =   1.0548  223:net7    =   1.0548  224:net14   =   1.2534 
 +224:net7    =   1.2534  225:net14   =   1.2534  225:net7    =   1.2534 
 +226:net14   =   1.0548  226:net7    =   1.0548  227:net14   =   1.0548 
 +227:net7    =   1.0548  228:net14   =   1.0548  228:net7    =   1.0548 
 +229:net14   =   1.0548  229:net7    =   1.0548  230:net14   =   1.0548 
 +230:net7    =   1.0548  231:net14   =   1.0548  231:net7    =   1.0548 
 +232:net14   =   1.0548  232:net7    =   1.0548  233:net14   =   1.0548 
 +233:net7    =   1.0548  234:net14   =   1.0548  234:net7    =   1.0548 
 +235:net14   =   1.0548  235:net7    =   1.0548  236:net14   =   1.0548 
 +236:net7    =   1.0548  237:net14   =   1.0548  237:net7    =   1.0548 
 +238:net14   =   1.0548  238:net7    =   1.0548  239:net14   =   1.0548 
 +239:net7    =   1.0548  240:net14   =   1.0548  240:net7    =   1.0548 
 +241:net14   =   1.0548  241:net7    =   1.0548  242:net14   =   1.0548 
 +242:net7    =   1.0548  243:net14   =   1.0548  243:net7    =   1.0548 
 +244:net14   =   1.0548  244:net7    =   1.0548  245:net14   =   1.0548 
 +245:net7    =   1.0548  246:net14   =   1.0548  246:net7    =   1.0548 
 +247:net14   =   1.0548  247:net7    =   1.0548  248:net14   =   1.0548 
 +248:net7    =   1.0548  249:net14   =   1.0548  249:net7    =   1.0548 
 +250:net14   =   1.0548  250:net7    =   1.0548  251:net14   =   1.0548 
 +251:net7    =   1.0548  252:net14   =   1.0548  252:net7    =   1.0548 
 +253:net14   =   1.0548  253:net7    =   1.0548  254:net14   =   1.0548 
 +254:net7    =   1.0548  255:net14   =   1.0548  255:net7    =   1.0548 
 +256:net14   =   1.2534  256:net7    =   1.2534  257:net14   =   1.2534 
 +257:net7    =   1.2534  258:net14   =   1.0548  258:net7    =   1.0548 
 +259:net14   =   1.0548  259:net7    =   1.0548  260:net14   =   1.0548 
 +260:net7    =   1.0548  261:net14   =   1.0548  261:net7    =   1.0548 
 +262:net14   =   1.0548  262:net7    =   1.0548  263:net14   =   1.0548 
 +263:net7    =   1.0548  264:net14   =   1.0548  264:net7    =   1.0548 
 +265:net14   =   1.0548  265:net7    =   1.0548  266:net14   =   1.0548 
 +266:net7    =   1.0548  267:net14   =   1.0548  267:net7    =   1.0548 
 +268:net14   =   1.0548  268:net7    =   1.0548  269:net14   =   1.0548 
 +269:net7    =   1.0548  270:net14   =   1.0548  270:net7    =   1.0548 
 +271:net14   =   1.0548  271:net7    =   1.0548  272:net14   =   1.0548 
 +272:net7    =   1.0548  273:net14   =   1.0548  273:net7    =   1.0548 
 +274:net14   =   1.0548  274:net7    =   1.0548  275:net14   =   1.0548 
 +275:net7    =   1.0548  276:net14   =   1.0548  276:net7    =   1.0548 
 +277:net14   =   1.0548  277:net7    =   1.0548  278:net14   =   1.0548 
 +278:net7    =   1.0548  279:net14   =   1.0548  279:net7    =   1.0548 
 +280:net14   =   1.0548  280:net7    =   1.0548  281:net14   =   1.0548 
 +281:net7    =   1.0548  282:net14   =   1.0548  282:net7    =   1.0548 
 +283:net14   =   1.0548  283:net7    =   1.0548  284:net14   =   1.0548 
 +284:net7    =   1.0548  285:net14   =   1.0548  285:net7    =   1.0548 
 +286:net14   =   1.0548  286:net7    =   1.0548  287:net14   =   1.0548 
 +287:net7    =   1.0548  288:net14   =   1.2534  288:net7    =   1.2534 
 +289:net14   =   1.2534  289:net7    =   1.2534  290:net14   =   1.0548 
 +290:net7    =   1.0548  291:net14   =   1.0548  291:net7    =   1.0548 
 +292:net14   =   1.0548  292:net7    =   1.0548  293:net14   =   1.0548 
 +293:net7    =   1.0548  294:net14   =   1.0548  294:net7    =   1.0548 
 +295:net14   =   1.0548  295:net7    =   1.0548  296:net14   =   1.0548 
 +296:net7    =   1.0548  297:net14   =   1.0548  297:net7    =   1.0548 
 +298:net14   =   1.0548  298:net7    =   1.0548  299:net14   =   1.0548 
 +299:net7    =   1.0548  300:net14   =   1.0548  300:net7    =   1.0548 
 +301:net14   =   1.0548  301:net7    =   1.0548  302:net14   =   1.0548 
 +302:net7    =   1.0548  303:net14   =   1.0548  303:net7    =   1.0548 
 +304:net14   =   1.0548  304:net7    =   1.0548  305:net14   =   1.0548 
 +305:net7    =   1.0548  306:net14   =   1.0548  306:net7    =   1.0548 
 +307:net14   =   1.0548  307:net7    =   1.0548  308:net14   =   1.0548 
 +308:net7    =   1.0548  309:net14   =   1.0548  309:net7    =   1.0548 
 +310:net14   =   1.0548  310:net7    =   1.0548  311:net14   =   1.0548 
 +311:net7    =   1.0548  312:net14   =   1.0548  312:net7    =   1.0548 
 +313:net14   =   1.0548  313:net7    =   1.0548  314:net14   =   1.0548 
 +314:net7    =   1.0548  315:net14   =   1.0548  315:net7    =   1.0548 
 +316:net14   =   1.0548  316:net7    =   1.0548  317:net14   =   1.0548 
 +317:net7    =   1.0548  318:net14   =   1.0548  318:net7    =   1.0548 
 +319:net14   =   1.0548  319:net7    =   1.0548  320:net14   =   1.2534 
 +320:net7    =   1.2534  321:net14   =   1.0548  321:net7    =   1.0548 
 +322:net14   =   1.0548  322:net7    =   1.0548  323:net14   =   1.0548 
 +323:net7    =   1.0548  324:net14   =   1.0548  324:net7    =   1.0548 
 +325:net14   =   1.0548  325:net7    =   1.0548  326:net14   =   1.0548 
 +326:net7    =   1.0548  327:net14   =   1.0548  327:net7    =   1.0548 
 +328:net14   =   1.0548  328:net7    =   1.0548  329:net14   =   1.0548 
 +329:net7    =   1.0548  330:net14   =   1.0548  330:net7    =   1.0548 
 +331:net14   =   1.0548  331:net7    =   1.0548  332:net14   =   1.0548 
 +332:net7    =   1.0548  333:net14   =   1.0548  333:net7    =   1.0548 
 +334:net14   =   1.0548  334:net7    =   1.0548  335:net14   =   1.0548 
 +335:net7    =   1.0548  336:net14   =   1.2534  336:net7    =   1.2534 
 +337:1       =   2.5000  337:2       =   2.5000  337:3       =   2.5000 
 +337:4       =   2.5000  374:net10   = 101.0300n 374:net14   = 190.7854n
 +374:net42   = 324.8059n 374:net6    =  50.5150n 375:net10   =   2.0582 
 +375:net14   =   2.0802  375:net42   =   2.5000  375:net6    =   2.0494 
 +376:net10   =   2.0589  376:net14   =   2.0808  376:net42   =   2.5000 
 +376:net6    =  67.0220n 377:net10   =   2.1140  377:net14   =   2.1345 
 +377:net42   =   2.5000  377:net6    =  56.7606m 378:net10   =  64.4925n
 +378:net14   =   2.1102  378:net42   =   2.5000  378:net6    =  32.2463n
 +379:net10   =  35.5813m 379:net14   =   2.1440  379:net42   =   2.5000 
 +379:net6    =  35.5813m 380:net10   =  35.6316m 380:net14   =   2.1441 
 +380:net42   =   2.5000  380:net6    =  13.0142n 381:net10   =  53.8255m
 +381:net14   =   2.1598  381:net42   =   2.5000  381:net6    =  17.3782m
 +382:net10   =  17.2850m 382:net14   =  58.9949m 382:net42   =   2.5000 
 +382:net6    =   7.6491m 383:net10   =   9.5483m 383:net14   =  50.2410m
 +383:net42   =   2.5000  383:net6    =   5.0868n 384:net10   =   9.5370m
 +384:net14   =  50.2283m 384:net42   =   2.5000  384:net6    =   9.5370m
 +385:net10   =  12.9622n 385:net14   =  39.7218m 385:net42   =   2.5000 
 +385:net6    =   6.4811n 386:net10   =  36.5382m 386:net14   =  36.5382m
 +386:net42   =   2.5000  386:net6    =  13.8398m 387:net10   =  22.1071m
 +387:net14   =  22.1071m 387:net42   =   2.5000  387:net6    =   9.8573n
 +388:net10   =  22.0785m 388:net14   =  22.0785m 388:net42   =   2.5000 
 +388:net6    =  22.0784m 389:net10   =  34.2500n 389:net14   =  64.6778n
 +389:net42   =   2.5000  389:net6    =  17.1250n


          ***** job concluded
1****** HSPICE -- F-2011.09-SP2 32-BIT (Feb 27 2012) linux ******               
 ******  
 * 'sup' is a variable you set to adjust the supply voltage

  ******  job statistics summary tnom=  25.000 temp=  25.000 *****
  
  
 ******  Machine Information  ******
 CPU:
 model name	: Intel(R) Xeon(R) CPU E3-1240 V2 @ 3.40GHz
 cpu MHz	: 1900.000
  
 OS:
 Linux version 2.6.32-431.1.2.0.1.el6.x86_64 (mockbuild@c6b9.bsys.dev.centos.org
 ) (gcc version 4.4.7 20120313 (Red Hat 4.4.7-4) (GCC) ) #1 SMP Fri Dec 13 13:06
 :13 UTC 2013


  ******  HSPICE Threads Information  ******

  Command Line Threads Count :     1
  Available CPU Count        :     8
  Actual Threads Count       :     1


  ******  Circuit Statistics  ******
  # nodes       =     900 # elements   =    2279
  # resistors   =      48 # capacitors =      96 # inductors   =       0
  # mutual_inds =       0 # vccs       =       0 # vcvs        =       0
  # cccs        =       0 # ccvs       =       0 # volt_srcs   =      31
  # curr_srcs   =       0 # diodes     =       0 # bjts        =       0
  # jfets       =       0 # mosfets    =    2104 # U elements  =       0
  # T elements  =       0 # W elements =       0 # B elements  =       0
  # S elements  =       0 # P elements =       0 # va device   =       0
  # vector_srcs =       0


  ******  Runtime Statistics (seconds)  ******

  analysis           time    # points   tot. iter  conv.iter
  op point           0.12           1          48
  transient          3.44        2001        2109         783 rev=        88
  readin             0.02
  errchk             0.20
  setup              0.00
  output             0.00


           peak memory used        112.12 megabytes
           total cpu time            3.80 seconds
           total elapsed time        4.22 seconds
           job started at     18:02:19 03/19/2014
           job ended   at     18:02:23 03/19/2014


 lic: Release hspice token(s) 
