$DATA1 SOURCE='HSPICE' VERSION='F-2011.09-SP2 32-BIT'
.TITLE '* 'sup' is a variable you set to adjust the supply voltage'
 tplh             temper           alter#            
  1.239e-10         25.0000        1                 
