***** HSPICE -- F-2011.09-SP2 32-BIT (Feb 27 2012) linux ******
 Input File: sim_deck
 lic:
 lic: FLEXlm: v10.8
 lic: USER:   branaugj             HOSTNAME: dear119-19.engr.oregonstate.edu
 lic: HOSTID: 8851fb6cf8de         PID:      14078
 lic: Using FLEXlm license file:
 lic: 7188@license.eecs.oregonstate.edu
 lic: Checkout 1 hspice
 lic: License/Maintenance for hspice will expire on 11-aug-2014/2013.03
 lic: 5(in_use)/50(total) FLOATING license(s) on SERVER license.eecs.oregonstate
 lic:
 init: begin read circuit files,  cpu clock=  5.00E-02
       option search   = /usr/local/apps/synopsys/hspice_vF-2011.09-SP2/h
                         spice/parts/ad
       option search   = /usr/local/apps/synopsys/hspice_vF-2011.09-SP2/h
                         spice/parts/ad
       option search   = /usr/local/apps/synopsys/hspice_vF-2011.09-SP2/h
                         spice/parts/behave
       option search   = /usr/local/apps/synopsys/hspice_vF-2011.09-SP2/h
                         spice/parts/bjt
       option search   = /usr/local/apps/synopsys/hspice_vF-2011.09-SP2/h
                         spice/parts/burr_brn
       option search   = /usr/local/apps/synopsys/hspice_vF-2011.09-SP2/h
                         spice/parts/comlinear
       option search   = /usr/local/apps/synopsys/hspice_vF-2011.09-SP2/h
                         spice/parts/dio
       option search   = /usr/local/apps/synopsys/hspice_vF-2011.09-SP2/h
                         spice/parts/fet
       option search   = /usr/local/apps/synopsys/hspice_vF-2011.09-SP2/h
                         spice/parts/lin_tech
       option search   = /usr/local/apps/synopsys/hspice_vF-2011.09-SP2/h
                         spice/parts/pci
       option search   = /usr/local/apps/synopsys/hspice_vF-2011.09-SP2/h
                         spice/parts/signet
       option search   = /usr/local/apps/synopsys/hspice_vF-2011.09-SP2/h
                         spice/parts/ti
       option search   = /usr/local/apps/synopsys/hspice_vF-2011.09-SP2/h
                         spice/parts/tline
       option search   = /usr/local/apps/synopsys/hspice_vF-2011.09-SP2/h
                         spice/parts/xilinx
       option runlvl
       option list
       option node
       option post
       option accura
 init: end read circuit files,  cpu clock=  5.00E-02 memory=    149 kb
 init: begin check errors,  cpu clock=  5.00E-02
 init: end check errors,  cpu clock=  5.00E-02 memory=    149 kb
 init: begin setup matrix, pivot=     0 cpu clock=  5.00E-02
       establish matrix -- done,  cpu clock=  5.00E-02 memory=    152 kb
       re-order matrix -- done,  cpu clock=  5.00E-02 memory=    152 kb
 init: end setup matrix,  cpu clock=  5.00E-02 memory=    169 kb
 dcop: begin dcop,  cpu clock=  5.00E-02
 dcop: end dcop,  cpu clock=  5.00E-02 memory=    169 kb  tot_iter=      40
 output: sim_deck.tr0
 sweep: tran tran0    begin, stop_t=  1.20E-07 #sweeps=1201 cpu clock=  5.00E-02
 tran: time= 1.5827E-08 tot_iter=      14 conv_iter=       7 cpu clock= 5.00E-02
 tran: time= 2.8441E-08 tot_iter=     126 conv_iter=      50 cpu clock= 6.00E-02
 tran: time= 3.7742E-08 tot_iter=     276 conv_iter=     104 cpu clock= 6.00E-02
 tran: time= 4.9555E-08 tot_iter=     437 conv_iter=     161 cpu clock= 7.00E-02
 tran: time= 6.0000E-08 tot_iter=     443 conv_iter=     164 cpu clock= 7.00E-02
 tran: time= 7.4043E-08 tot_iter=     605 conv_iter=     223 cpu clock= 7.00E-02
 tran: time= 8.4386E-08 tot_iter=     755 conv_iter=     276 cpu clock= 7.00E-02
 tran: time= 9.7661E-08 tot_iter=     868 conv_iter=     319 cpu clock= 7.00E-02
 tran: time= 1.1060E-07 tot_iter=    1019 conv_iter=     376 cpu clock= 7.00E-02
 tran: time= 1.2000E-07 tot_iter=    1023 conv_iter=     378 cpu clock= 7.00E-02
 sweep: tran tran0    end,  cpu clock=  7.00E-02 memory=    170 kb
>info:         ***** hspice job concluded
 lic: Release hspice token(s)
