***** HSPICE -- F-2011.09-SP2 32-BIT (Feb 27 2012) linux ******
 Input File: sim_deck
 lic:
 lic: FLEXlm: v10.8
 lic: USER:   branaugj             HOSTNAME: dear119-24.engr.oregonstate.edu
 lic: HOSTID: 7446a09dad18         PID:      26539
 lic: Using FLEXlm license file:
 lic: 7188@license.eecs.oregonstate.edu
 lic: Checkout 1 hspice
 lic: License/Maintenance for hspice will expire on 11-aug-2014/2013.03
 lic: 5(in_use)/50(total) FLOATING license(s) on SERVER license.eecs.oregonstate
 lic:
 init: begin read circuit files,  cpu clock=  4.00E-02
       option search   = /usr/local/apps/synopsys/hspice_vF-2011.09-SP2/h
                         spice/parts/ad
       option search   = /usr/local/apps/synopsys/hspice_vF-2011.09-SP2/h
                         spice/parts/ad
       option search   = /usr/local/apps/synopsys/hspice_vF-2011.09-SP2/h
                         spice/parts/behave
       option search   = /usr/local/apps/synopsys/hspice_vF-2011.09-SP2/h
                         spice/parts/bjt
       option search   = /usr/local/apps/synopsys/hspice_vF-2011.09-SP2/h
                         spice/parts/burr_brn
       option search   = /usr/local/apps/synopsys/hspice_vF-2011.09-SP2/h
                         spice/parts/comlinear
       option search   = /usr/local/apps/synopsys/hspice_vF-2011.09-SP2/h
                         spice/parts/dio
       option search   = /usr/local/apps/synopsys/hspice_vF-2011.09-SP2/h
                         spice/parts/fet
       option search   = /usr/local/apps/synopsys/hspice_vF-2011.09-SP2/h
                         spice/parts/lin_tech
       option search   = /usr/local/apps/synopsys/hspice_vF-2011.09-SP2/h
                         spice/parts/pci
       option search   = /usr/local/apps/synopsys/hspice_vF-2011.09-SP2/h
                         spice/parts/signet
       option search   = /usr/local/apps/synopsys/hspice_vF-2011.09-SP2/h
                         spice/parts/ti
       option search   = /usr/local/apps/synopsys/hspice_vF-2011.09-SP2/h
                         spice/parts/tline
       option search   = /usr/local/apps/synopsys/hspice_vF-2011.09-SP2/h
                         spice/parts/xilinx
       option runlvl
       option list
       option node
       option post
       option accura
 init: end read circuit files,  cpu clock=  5.00E-02 memory=    281 kb
 init: begin check errors,  cpu clock=  5.00E-02
 init: end check errors,  cpu clock=  6.00E-02 memory=    412 kb
 init: begin setup matrix, pivot=     0 cpu clock=  6.00E-02
       establish matrix -- done,  cpu clock=  6.00E-02 memory=    426 kb
       re-order matrix -- done,  cpu clock=  6.00E-02 memory=    426 kb
 init: end setup matrix,  cpu clock=  6.00E-02 memory=    466 kb
 dcop: begin dcop,  cpu clock=  6.00E-02
 dcop: begin pseudo transient
 dcop: ...succeeded
 dcop: end pseudo transient
 dcop: end dcop,  cpu clock=  6.00E-02 memory=    466 kb  tot_iter=      75
 output: sim_deck.tr0
 sweep: tran tran0    begin, stop_t=  2.00E-04 #sweeps=2001 cpu clock=  6.00E-02
 tran: time= 2.0000E-05 tot_iter=     302 conv_iter=     107 cpu clock= 9.00E-02
 tran: time= 4.0000E-05 tot_iter=     701 conv_iter=     242 cpu clock= 1.00E-01
 tran: time= 6.0000E-05 tot_iter=     939 conv_iter=     325 cpu clock= 1.10E-01
 tran: time= 8.0000E-05 tot_iter=    1287 conv_iter=     441 cpu clock= 1.20E-01
 tran: time= 1.0000E-04 tot_iter=    1711 conv_iter=     589 cpu clock= 1.30E-01
 tran: time= 1.2000E-04 tot_iter=    2040 conv_iter=     701 cpu clock= 1.40E-01
 tran: time= 1.4000E-04 tot_iter=    2316 conv_iter=     793 cpu clock= 1.50E-01
 tran: time= 1.6409E-04 tot_iter=    2385 conv_iter=     825 cpu clock= 1.50E-01
 tran: time= 1.8574E-04 tot_iter=    2391 conv_iter=     828 cpu clock= 1.50E-01
 tran: time= 2.0000E-04 tot_iter=    2395 conv_iter=     830 cpu clock= 1.50E-01
 sweep: tran tran0    end,  cpu clock=  1.50E-01 memory=    467 kb
>info:         ***** hspice job concluded
 lic: Release hspice token(s)
