***** HSPICE -- F-2011.09-SP2 32-BIT (Feb 27 2012) linux ******
 Input File: sim_deck
 lic:
 lic: FLEXlm: v10.8
 lic: USER:   branaugj             HOSTNAME: dear119-19.engr.oregonstate.edu
 lic: HOSTID: 8851fb6cf8de         PID:      14885
 lic: Using FLEXlm license file:
 lic: 7188@license.eecs.oregonstate.edu
 lic: Checkout 1 hspice
 lic: License/Maintenance for hspice will expire on 11-aug-2014/2013.03
 lic: 5(in_use)/50(total) FLOATING license(s) on SERVER license.eecs.oregonstate
 lic:
 init: begin read circuit files,  cpu clock=  5.00E-02
       option search   = /usr/local/apps/synopsys/hspice_vF-2011.09-SP2/h
                         spice/parts/ad
       option search   = /usr/local/apps/synopsys/hspice_vF-2011.09-SP2/h
                         spice/parts/ad
       option search   = /usr/local/apps/synopsys/hspice_vF-2011.09-SP2/h
                         spice/parts/behave
       option search   = /usr/local/apps/synopsys/hspice_vF-2011.09-SP2/h
                         spice/parts/bjt
       option search   = /usr/local/apps/synopsys/hspice_vF-2011.09-SP2/h
                         spice/parts/burr_brn
       option search   = /usr/local/apps/synopsys/hspice_vF-2011.09-SP2/h
                         spice/parts/comlinear
       option search   = /usr/local/apps/synopsys/hspice_vF-2011.09-SP2/h
                         spice/parts/dio
       option search   = /usr/local/apps/synopsys/hspice_vF-2011.09-SP2/h
                         spice/parts/fet
       option search   = /usr/local/apps/synopsys/hspice_vF-2011.09-SP2/h
                         spice/parts/lin_tech
       option search   = /usr/local/apps/synopsys/hspice_vF-2011.09-SP2/h
                         spice/parts/pci
       option search   = /usr/local/apps/synopsys/hspice_vF-2011.09-SP2/h
                         spice/parts/signet
       option search   = /usr/local/apps/synopsys/hspice_vF-2011.09-SP2/h
                         spice/parts/ti
       option search   = /usr/local/apps/synopsys/hspice_vF-2011.09-SP2/h
                         spice/parts/tline
       option search   = /usr/local/apps/synopsys/hspice_vF-2011.09-SP2/h
                         spice/parts/xilinx
       option runlvl
       option list
       option node
       option post
       option accura
 init: end read circuit files,  cpu clock=  6.00E-02 memory=    149 kb
 init: begin check errors,  cpu clock=  6.00E-02
 init: end check errors,  cpu clock=  6.00E-02 memory=    280 kb
 init: begin setup matrix, pivot=     0 cpu clock=  6.00E-02
       establish matrix -- done,  cpu clock=  6.00E-02 memory=    286 kb
       re-order matrix -- done,  cpu clock=  6.00E-02 memory=    286 kb
 init: end setup matrix,  cpu clock=  6.00E-02 memory=    311 kb
 dcop: begin dcop,  cpu clock=  6.00E-02
 dcop: end dcop,  cpu clock=  6.00E-02 memory=    311 kb  tot_iter=      24
 output: sim_deck.tr0
 sweep: tran tran0    begin, stop_t=  1.20E-07 #sweeps=1201 cpu clock=  6.00E-02
 tran: time= 1.2309E-08 tot_iter=     229 conv_iter=      85 cpu clock= 7.00E-02
 tran: time= 2.4040E-08 tot_iter=     363 conv_iter=     135 cpu clock= 8.00E-02
 tran: time= 3.6886E-08 tot_iter=     488 conv_iter=     180 cpu clock= 8.00E-02
 tran: time= 5.0200E-08 tot_iter=     659 conv_iter=     241 cpu clock= 8.00E-02
 tran: time= 6.3177E-08 tot_iter=     761 conv_iter=     280 cpu clock= 9.00E-02
 tran: time= 7.5177E-08 tot_iter=     765 conv_iter=     282 cpu clock= 9.00E-02
 tran: time= 8.9059E-08 tot_iter=     838 conv_iter=     312 cpu clock= 9.00E-02
 tran: time= 1.0106E-07 tot_iter=     842 conv_iter=     314 cpu clock= 9.00E-02
 tran: time= 1.1020E-07 tot_iter=     846 conv_iter=     316 cpu clock= 9.00E-02
 tran: time= 1.2000E-07 tot_iter=     903 conv_iter=     340 cpu clock= 9.00E-02
 sweep: tran tran0    end,  cpu clock=  9.00E-02 memory=    312 kb
>info:         ***** hspice job concluded
 lic: Release hspice token(s)
