Using: /usr/local/apps/synopsys/current_hspice/hspice/linux/hspice sim_deck
 ****** HSPICE -- F-2011.09-SP2 32-BIT (Feb 27 2012) linux ******               
  Copyright (C) 2011 Synopsys, Inc. All Rights Reserved.                        
  Unpublished-rights reserved under US copyright laws.
  This program is protected by law and is subject to the
  terms and conditions of the license agreement from Synopsys.
  Use of this program is your acceptance to be bound by the
  license agreement. HSPICE is the trademark of Synopsys, Inc.
  Input File: sim_deck                                                          
  Command line options: sim_deck
 lic:  
 lic: FLEXlm: v10.8 
 lic: USER:   branaugj             HOSTNAME: dear119-24.engr.oregonstate.edu 
 lic: HOSTID: 7446a09dad18         PID:      26539 
 lic: Using FLEXlm license file: 
 lic: 7188@license.eecs.oregonstate.edu 
 lic: Checkout 1 hspice 
 lic: License/Maintenance for hspice will expire on 11-aug-2014/2013.03 
 lic: 5(in_use)/50(total) FLOATING license(s) on SERVER license.eecs.oregonstate
 lic:   
 Init: read install configuration file: /usr/local/apps/synopsys/current_hspice/hspice/meta.cfg
 **warning** (./sram.sp:102)'.end' can not exist in include/lib files, ignored

 **warning**  runlvl smaller than 5, reset to 5  when accurate turned on
 scientific notation:
 a=10**-18  f=10**-15  p=10**-12  n=10**-9  u=10**-6
 m=10**-3   k=10**3    x=10**6    g=10**9 

 **warning**  runlvl smaller than 5, reset to 5  when accurate turned on
1****** HSPICE -- F-2011.09-SP2 32-BIT (Feb 27 2012) linux ******               
 ******  
 * 'sup' is a variable you set to adjust the supply voltage

  ******  circuit name directory
 circuit number to circuit name directory
   number circuitname                     definition         multiplier
        0 main circuit
        1 xi5.                            sub2               1.00 
        2 xi6.                            sub2               1.00 
        3 xi4.                            sub1               1.00 
        4 xi3.                            sub3               1.00 
        5 xi5.xi0.                        sub1               1.00 
        6 xi6.xi0.                        sub1               1.00 


 circuit parameter definitions
  parameter          =  value 

     0:sup                                                     =   2.5000       
     0:del_t                                                   =  10.0000u      




 constants  - tnom         kt           vt           gapsi        ni
            298.15000    4.1163e-21    25.69184m     1.11562    1.2565e+16 
1****** HSPICE -- F-2011.09-SP2 32-BIT (Feb 27 2012) linux ******               
 ******  
 * 'sup' is a variable you set to adjust the supply voltage

  ******  mos   model parameters tnom=  25.000 temp=  25.000 *****
 ***************************************************************************
 ***        model parameters  model name:   0:tsmc25dn model type:nmos   ***
 ***************************************************************************

   *** general parameters ***
    deriv=   0.           

   ***  level 49  model parameters  ***

      hspver=    2006.03               level=         49         
     version=        3.1            paramchk=          0         
      apwarn=          1                lite=          0         
      vgslim=          0             binUnit=          1         
      capMod=          2               xpart=        0.4         
      mobMod=          1              nqsMod=          0         
      stiMod=          0                 elm=          5         
    sfvtflag=          0                 tox=    5.8e-09 meter   
          xj=      1e-07 meter       binflag=          0         
        lmin=          0 meter          lmax=          0 meter   
        wmin=          0 meter          wmax=          0 meter   
        lref=          0 meter          wref=          0 meter   
        lint=4.39347e-09 meter          wint= 2.1265e-09 meter   
       lmult=          1               wmult=          1         
          ll=          0                 lln=          1         
          lw=          0                 lwn=          1         
         lwl=          0                  wl=          0         
         wln=          1                  ww=          0         
         wwn=          1                 wwl=          0         
         dwg=-3.40903e-09 m/V             dwb=2.79484e-09 m/V^1/2 
          xl=     -3e-08                  xw=          0         
          a0=    1.23186                 ags=   0.304333 V^-1    
          b0=6.67749e-08 meter            b1=      5e-06 meter   
        keta=0.000851805 V^-1           voff=  -0.102605 V       
       ngate=          0 cm^-3           vbx=          0 V       
         vbm=         -3 V                xt=   1.55e-07 meter   
        vth0=   0.430894 V               nch= 2.3549e+17 cm^-3   
        nsub=      6e+16 cm^-3           nlx= 1.4659e-07 meter   
      gamma1=          0 V^-1/2       gamma2=          0 V^-1/2  
          k1=   0.351943 V^1/2            k2=  0.0298493         
          k3=      0.001                 k3b=  0.0592323 V^-1    
          w0=      1e-05 meter          dvt0=  0.0183405         
        dvt1= 0.00489758                dvt2= -0.0252658 V^-1    
       dvt0w=          0 meter^-1      dvt1w=          0 meter^-1
       dvt2w=          0 V^-1           dsub= 0.00304547         
        eta0= 0.00348737                etab=0.000455799 V^-1    
          u0=    455.303 cm^2/V/sec         ua=5.22359e-10 m/V     
          ub=1.10471e-18 (m/V)^2          uc=3.28789e-11 V^-1    
        vsat=     105099 m/sec            a1=          0 v^-1    
          a2=          1               delta=       0.01 V       
        rdsw=    509.568 ohm-um         prwg=  0.0227558 V^-1    
        prwb=     -0.001 V^-1/2           wr=          1         
        pclm=    1.04463             pdiblc1=   0.144195         
     pdiblc2=0.000451338             pdiblcb=-2.81676e-05 V^-1    
      pscbe1=1.76111e+10 V/m          pscbe2=3.77292e-09 V/m     
       drout=   0.469872                pvag=  0.0361824         
     nfactor=   0.134489                cdsc= 0.00152751 f/m^2   
       cdscb=          0 f/V/m^2       cdscd=          0 f/V/m^2 
         cit=          0 f/m^2        alpha0=          0 m/V     
       beta0=         30 V               dlc=4.39347e-09 meter   
         dwc= 2.1265e-09 meter           clc=      1e-07 meter   
         cle=        0.6                cgso=   6.27e-10 f/m     
        cgdo=   6.27e-10 f/m            cgbo=          0 f/m     
        cgsl=          0 f/m            cgdl=          0 f/m     
      ckappa=        0.6                  cf=9.33852e-11 f/m     
        tnom=     300.15 K               kt1=      -0.11 V       
        kt1l=          0                 kt2=      0.022         
         ute=       -1.5                 ua1=   4.31e-09 m/V     
         ub1=  -7.61e-18 (m/V)^2         uc1=   -5.6e-11 m/V^2   
          at=      33000 m/s             prt=          0         
         using Berkeley noise model       noiMod=          1         
        noia=      1e+20                noib=      50000         
        noic=   -1.4e-12                  em=    4.1e+07         
          ef=          1                  af=          1         
          kf=          0              gdsnoi=-1.23457e-29         
         using Hspice diodes            using ACM 
         acm=         0                 hdif=         0 meter    
        ldif=         0 meter             js=         0 amp/m^2  
         jsw=         0 amp/m            xti=         0          
           n=         1                   cj=0.00191866 f/m^2    
          mj=  0.472173                   pb=  0.978405 V        
        cjsw=4.44159e-10 f/m             mjsw=  0.287112          
         php=  0.978405 V               pbsw (not used)           
      cjgate=4.44159e-10 f/m            cjswg (not used)           
       mjswg (not used)                 pbswg (not used)           
       lketa=-0.00614406               wketa=0.000751269         
       pvth0= 0.00134299                 pk2=-0.00314072         
       prdsw=   -61.8357         
 ***************************************************************************
 ***        model parameters  model name:   0:tsmc25dp model type:pmos   ***
 ***************************************************************************

   *** general parameters ***
    deriv=   0.           

   ***  level 49  model parameters  ***

      hspver=    2006.03               level=         49         
     version=        3.1            paramchk=          0         
      apwarn=          1                lite=          0         
      vgslim=          0             binUnit=          1         
      capMod=          2               xpart=        0.4         
      mobMod=          1              nqsMod=          0         
      stiMod=          0                 elm=          5         
    sfvtflag=          0                 tox=    5.8e-09 meter   
          xj=      1e-07 meter       binflag=          0         
        lmin=          0 meter          lmax=          0 meter   
        wmin=          0 meter          wmax=          0 meter   
        lref=          0 meter          wref=          0 meter   
        lint=8.71907e-09 meter          wint=2.74881e-08 meter   
       lmult=          1               wmult=          1         
          ll=          0                 lln=          1         
          lw=          0                 lwn=          1         
         lwl=          0                  wl=          0         
         wln=          1                  ww=          0         
         wwn=          1                 wwl=          0         
         dwg=-4.08759e-08 m/V             dwb=2.03201e-08 m/V^1/2 
          xl=     -3e-08                  xw=          0         
          a0=    1.38264                 ags=   0.419298 V^-1    
          b0= 2.8441e-06 meter            b1=      5e-06 meter   
        keta=  0.0208695 V^-1           voff=      -0.15 V       
       ngate=          0 cm^-3           vbx=          0 V       
         vbm=         -3 V                xt=   1.55e-07 meter   
        vth0=  -0.615873 V               nch= 4.1589e+17 cm^-3   
        nsub=      6e+16 cm^-3           nlx=      1e-09 meter   
      gamma1=          0 V^-1/2       gamma2=          0 V^-1/2  
          k1=   0.459838 V^1/2            k2=  0.0399415         
          k3=          0                 k3b=    8.74107 V^-1    
          w0=      1e-06 meter          dvt0=   0.624949         
        dvt1=   0.203296                dvt2= -0.0513763 V^-1    
       dvt0w=          0 meter^-1      dvt1w=          0 meter^-1
       dvt2w=          0 V^-1           dsub=    1.02871         
        eta0=   0.324124                etab=    -0.1842 V^-1    
          u0=    158.675 cm^2/V/sec         ua=2.20002e-10 m/V     
          ub=4.45742e-18 (m/V)^2          uc=1.02138e-10 V^-1    
        vsat=     185064 m/sec            a1=          0 v^-1    
          a2=          1               delta=       0.01 V       
        rdsw=    968.546 ohm-um         prwg=  -0.102648 V^-1    
        prwb=     -0.325 V^-1/2           wr=          1         
        pclm=    5.26546             pdiblc1= 0.00422834         
     pdiblc2= 0.00120452             pdiblcb= 0.00237525 V^-1    
      pscbe1=3.01146e+10 V/m          pscbe2=3.03704e-07 V/m     
       drout=          0                pvag=    8.95643         
     nfactor=    1.54605                cdsc=0.000141332 f/m^2   
       cdscb=          0 f/V/m^2       cdscd=          0 f/V/m^2 
         cit=          0 f/m^2        alpha0=          0 m/V     
       beta0=         30 V               dlc=8.71907e-09 meter   
         dwc=2.74881e-08 meter           clc=      1e-07 meter   
         cle=        0.6                cgso=   5.59e-10 f/m     
        cgdo=   5.59e-10 f/m            cgbo=          0 f/m     
        cgsl=          0 f/m            cgdl=          0 f/m     
      ckappa=        0.6                  cf=9.33852e-11 f/m     
        tnom=     300.15 K               kt1=      -0.11 V       
        kt1l=          0                 kt2=      0.022         
         ute=       -1.5                 ua1=   4.31e-09 m/V     
         ub1=  -7.61e-18 (m/V)^2         uc1=   -5.6e-11 m/V^2   
          at=      33000 m/s             prt=          0         
         using Berkeley noise model       noiMod=          1         
        noia=    9.9e+18                noib=       2400         
        noic=    1.4e-12                  em=    4.1e+07         
          ef=          1                  af=          1         
          kf=          0              gdsnoi=-1.23457e-29         
         using Hspice diodes            using ACM 
         acm=         0                 hdif=         0 meter    
        ldif=         0 meter             js=         0 amp/m^2  
         jsw=         0 amp/m            xti=         0          
           n=         1                   cj=0.00188286 f/m^2    
          mj=  0.467979                   pb=  0.989132 V        
        cjsw=3.67186e-10 f/m             mjsw=  0.356213          
         php=  0.989132 V               pbsw (not used)           
      cjgate=3.67186e-10 f/m            cjswg (not used)           
       mjswg (not used)                 pbswg (not used)           
       lketa= -0.0232426               lvsat=     125700         
       wketa= 0.00410049               pvth0= 0.00392376         
         pk2= 0.00206176               prdsw=    15.3953         
  **warning** (sim_deck:4) Both nodes of element vgnd are connected together; Line ignored.
  **info** (sim_deck:34) DC voltage reset to initial transient source value              in source        0:vrden               new dc=  0.0000D+00
  **warning** (sim_deck:33) pulse vwr2 period too small, reset to   2.0000040E-04
 

1****** HSPICE -- F-2011.09-SP2 32-BIT (Feb 27 2012) linux ******               
 ******  
 * 'sup' is a variable you set to adjust the supply voltage

  ******  circuit element summary tnom=  25.000 temp=  25.000 *****


 **** independent sources

     name         node1        node2      dc volt    ac mag    ac phase    type
  vrden  rd_en             q                    0.         0.         0.      pulse
             initial value     0.     
             pulsed value.     2.5000 
             delay time...    50.0000u
             risetime.....   200.0000p
             falltime.....   200.0000p
             width........    20.0000u
             period.......   200.0000u

  vrden2  q                 0                    0.         0.         0.      pulse
             initial value     0.     
             pulsed value.     2.5000 
             delay time...   120.0000u
             risetime.....   200.0000p
             falltime.....   200.0000p
             width........    20.0000u
             period.......   200.0000u

  vvdd  vdd!              0                    2.5000     0.         0.      dc   
  vwl  wl                tmp                  0.         0.         0.      pulse
             initial value     0.     
             pulsed value.     2.5000 
             delay time...    10.0000u
             risetime.....   200.0000p
             falltime.....   200.0000p
             width........    10.0000u
             period.......   200.0000u

  vwl2  tmp               a                    0.         0.         0.      pulse
             initial value     0.     
             pulsed value.     2.5000 
             delay time...    60.0000u
             risetime.....   200.0000p
             falltime.....   200.0000p
             width........    10.0000u
             period.......   200.0000u

  vwl3  a                 x                    0.         0.         0.      pulse
             initial value     0.     
             pulsed value.     2.5000 
             delay time...    80.0000u
             risetime.....   200.0000p
             falltime.....   200.0000p
             width........    10.0000u
             period.......   200.0000u

  vwl4  x                 0                    0.         0.         0.      pulse
             initial value     0.     
             pulsed value.     2.5000 
             delay time...   130.0000u
             risetime.....   200.0000p
             falltime.....   200.0000p
             width........    10.0000u
             period.......   200.0000u

  vwr  wr                b                    0.         0.         0.      pulse
             initial value     0.     
             pulsed value.     2.5000 
             delay time...    10.0000u
             risetime.....   200.0000p
             falltime.....   200.0000p
             width........    10.0000u
             period.......   200.0000u

  vwr2  b                 0                    0.         0.         0.      pulse
             initial value     0.     
             pulsed value.     2.5000 
             delay time...    90.0000u
             risetime.....   200.0000p
             falltime.....   200.0000p
             width........   200.0000u
             period.......   200.0004u

  vwren  wr_en             tmp2                 0.         0.         0.      pulse
             initial value     0.     
             pulsed value.     2.5000 
             delay time...    10.0000u
             risetime.....   200.0000p
             falltime.....   200.0000p
             width........    10.0000u
             period.......   200.0000u

  vwren2  tmp2              tmp3                 0.         0.         0.      pulse
             initial value     0.     
             pulsed value.     2.5000 
             delay time...    30.0000u
             risetime.....   200.0000p
             falltime.....   200.0000p
             width........    10.0000u
             period.......   200.0000u

  vwren3  tmp3              tmp4                 0.         0.         0.      pulse
             initial value     0.     
             pulsed value.     2.5000 
             delay time...    80.0000u
             risetime.....   200.0000p
             falltime.....   200.0000p
             width........    10.0000u
             period.......   200.0000u

  vwren4  tmp4              0                    0.         0.         0.      pulse
             initial value     0.     
             pulsed value.     2.5000 
             delay time...   100.0000u
             risetime.....   200.0000p
             falltime.....   200.0000p
             width........    10.0000u
             period.......   200.0000u



 **** mosfets


 **** BSIM3v3 Model (Level49 or Level53)
  
  
                                                                          
 element name        0:mn4         0:mn2         0:mn1         0:mn0      
 drain               0:bl          0:blb         0:net7        0:net14    
 gate                0:wl          0:wl          0:net14       0:net7     
 source              0:net7        0:net14       0:0           0:0        
 bulk                0:0           0:0           0:0           0:0        
 model               0:tsmc25dn    0:tsmc25dn    0:tsmc25dn    0:tsmc25dn 
 w eff             355.7470n     355.7470n     355.7470n     355.7470n    
 l eff             201.2131n     201.2131n     201.2131n     201.2131n    
 rd eff              0.            0.            0.            0.         
 rs eff              0.            0.            0.            0.         
 cdsat               0.            0.            0.            0.         
 cssat               0.            0.            0.            0.         
 capbd               1.2672f       1.2672f       1.2672f       1.2672f    
 capbs               1.2672f       1.2672f       1.2672f       1.2672f    
 temp               25.0000       25.0000       25.0000       25.0000     
 aic                                                                      
 nf                  1.0000        1.0000        1.0000        1.0000     
 sa                  0.            0.            0.            0.         
 sb                  0.            0.            0.            0.         
 sd                  0.            0.            0.            0.         
 saeff               0.            0.            0.            0.         
 sbeff               0.            0.            0.            0.         
 mulu0               1.0000        1.0000        1.0000        1.0000     
 mulua               1.0000        1.0000        1.0000        1.0000     
 mulub               1.0000        1.0000        1.0000        1.0000     
  
  
                                                                          
 element name        0:mp1         0:mp0         1:mn2         1:mn1      
 drain               0:net7        0:net14       1:net6        1:net10    
 gate                0:net14       0:net7        0:wr          1:net6     
 source              0:vdd!        0:vdd!        0:0           0:0        
 bulk                0:vdd!        0:vdd!        0:0           0:0        
 model               0:tsmc25dp    0:tsmc25dp    0:tsmc25dn    0:tsmc25dn 
 w eff             305.0238n     305.0238n     355.7470n     715.7470n    
 l eff             192.5619n     192.5619n     201.2131n     201.2131n    
 rd eff              0.            0.            0.            0.         
 rs eff              0.            0.            0.            0.         
 cdsat               0.            0.            0.            0.         
 cssat               0.            0.            0.            0.         
 capbd               1.1117f       1.1117f       1.2672f       2.0014f    
 capbs               1.1117f       1.1117f       1.2672f       2.0014f    
 temp               25.0000       25.0000       25.0000       25.0000     
 aic                                                                      
 nf                  1.0000        1.0000        1.0000        1.0000     
 sa                  0.            0.            0.            0.         
 sb                  0.            0.            0.            0.         
 sd                  0.            0.            0.            0.         
 saeff               0.            0.            0.            0.         
 sbeff               0.            0.            0.            0.         
 mulu0               1.0000        1.0000        1.0000        1.0000     
 mulua               1.0000        1.0000        1.0000        1.0000     
 mulub               1.0000        1.0000        1.0000        1.0000     
  
  
                                                                          
 element name        1:mn0         1:mp2         1:mp1         1:mp0      
 drain               0:bl          0:bl          1:net21       1:net6     
 gate                0:wr_en       1:1           1:net6        0:wr       
 source              1:net10       1:net21       0:vdd!        0:vdd!     
 bulk                0:0           0:vdd!        0:vdd!        0:vdd!     
 model               0:tsmc25dn    0:tsmc25dp    0:tsmc25dp    0:tsmc25dp 
 w eff             715.7470n       1.3850u       1.3850u     665.0238n    
 l eff             201.2131n     192.5619n     192.5619n     192.5619n    
 rd eff              0.            0.            0.            0.         
 rs eff              0.            0.            0.            0.         
 cdsat               0.            0.            0.            0.         
 cssat               0.            0.            0.            0.         
 capbd               2.0014f       3.1249f       3.1249f       1.7828f    
 capbs               2.0014f       3.1249f       3.1249f       1.7828f    
 temp               25.0000       25.0000       25.0000       25.0000     
 aic                                                                      
 nf                  1.0000        1.0000        1.0000        1.0000     
 sa                  0.            0.            0.            0.         
 sb                  0.            0.            0.            0.         
 sd                  0.            0.            0.            0.         
 saeff               0.            0.            0.            0.         
 sbeff               0.            0.            0.            0.         
 mulu0               1.0000        1.0000        1.0000        1.0000     
 mulua               1.0000        1.0000        1.0000        1.0000     
 mulub               1.0000        1.0000        1.0000        1.0000     
  
  
                                                                          
 element name        2:mn2         2:mn1         2:mn0         2:mp2      
 drain               2:net6        2:net10       0:blb         0:blb      
 gate                0:net027      2:net6        0:wr_en       2:1        
 source              0:0           0:0           2:net10       2:net21    
 bulk                0:0           0:0           0:0           0:vdd!     
 model               0:tsmc25dn    0:tsmc25dn    0:tsmc25dn    0:tsmc25dp 
 w eff             355.7470n     715.7470n     715.7470n       1.3850u    
 l eff             201.2131n     201.2131n     201.2131n     192.5619n    
 rd eff              0.            0.            0.            0.         
 rs eff              0.            0.            0.            0.         
 cdsat               0.            0.            0.            0.         
 cssat               0.            0.            0.            0.         
 capbd               1.2672f       2.0014f       2.0014f       3.1249f    
 capbs               1.2672f       2.0014f       2.0014f       3.1249f    
 temp               25.0000       25.0000       25.0000       25.0000     
 aic                                                                      
 nf                  1.0000        1.0000        1.0000        1.0000     
 sa                  0.            0.            0.            0.         
 sb                  0.            0.            0.            0.         
 sd                  0.            0.            0.            0.         
 saeff               0.            0.            0.            0.         
 sbeff               0.            0.            0.            0.         
 mulu0               1.0000        1.0000        1.0000        1.0000     
 mulua               1.0000        1.0000        1.0000        1.0000     
 mulub               1.0000        1.0000        1.0000        1.0000     
  
  
                                                                          
 element name        2:mp1         2:mp0         3:mp0         3:mn0      
 drain               2:net21       2:net6        0:net027      0:net027   
 gate                2:net6        0:net027      0:wr          0:wr       
 source              0:vdd!        0:vdd!        0:vdd!        0:0        
 bulk                0:vdd!        0:vdd!        0:vdd!        0:0        
 model               0:tsmc25dp    0:tsmc25dp    0:tsmc25dp    0:tsmc25dn 
 w eff               1.3850u     665.0238n     665.0238n     355.7470n    
 l eff             192.5619n     192.5619n     192.5619n     201.2131n    
 rd eff              0.            0.            0.            0.         
 rs eff              0.            0.            0.            0.         
 cdsat               0.            0.            0.            0.         
 cssat               0.            0.            0.            0.         
 capbd               3.1249f       1.7828f       1.7828f       1.2672f    
 capbs               3.1249f       1.7828f       1.7828f       1.2672f    
 temp               25.0000       25.0000       25.0000       25.0000     
 aic                                                                      
 nf                  1.0000        1.0000        1.0000        1.0000     
 sa                  0.            0.            0.            0.         
 sb                  0.            0.            0.            0.         
 sd                  0.            0.            0.            0.         
 saeff               0.            0.            0.            0.         
 sbeff               0.            0.            0.            0.         
 mulu0               1.0000        1.0000        1.0000        1.0000     
 mulua               1.0000        1.0000        1.0000        1.0000     
 mulub               1.0000        1.0000        1.0000        1.0000     
  
  
                                                                          
 element name        4:mn2         4:mn1         4:mn0         4:mp1      
 drain               4:net20       0:val         4:net17       0:val      
 gate                0:rd_en       0:blb         0:bl          4:net17    
 source              0:0           4:net20       4:net20       0:vdd!     
 bulk                0:0           0:0           0:0           0:vdd!     
 model               0:tsmc25dn    0:tsmc25dn    0:tsmc25dn    0:tsmc25dp 
 w eff             355.7470n     355.7470n     355.7470n     665.0238n    
 l eff             201.2131n     201.2131n     201.2131n     192.5619n    
 rd eff              0.            0.            0.            0.         
 rs eff              0.            0.            0.            0.         
 cdsat               0.            0.            0.            0.         
 cssat               0.            0.            0.            0.         
 capbd               1.2672f       1.2672f       1.2672f       1.7828f    
 capbs               1.2672f       1.2672f       1.2672f       1.7828f    
 temp               25.0000       25.0000       25.0000       25.0000     
 aic                                                                      
 nf                  1.0000        1.0000        1.0000        1.0000     
 sa                  0.            0.            0.            0.         
 sb                  0.            0.            0.            0.         
 sd                  0.            0.            0.            0.         
 saeff               0.            0.            0.            0.         
 sbeff               0.            0.            0.            0.         
 mulu0               1.0000        1.0000        1.0000        1.0000     
 mulua               1.0000        1.0000        1.0000        1.0000     
 mulub               1.0000        1.0000        1.0000        1.0000     
  
  
                                                                          
 element name        4:mp0         5:mp0         5:mn0         6:mp0      
 drain               4:net17       1:1           1:1           2:1        
 gate                4:net17       0:wr_en       0:wr_en       0:wr_en    
 source              0:vdd!        0:vdd!        0:0           0:vdd!     
 bulk                0:vdd!        0:vdd!        0:0           0:vdd!     
 model               0:tsmc25dp    0:tsmc25dp    0:tsmc25dn    0:tsmc25dp 
 w eff             665.0238n     665.0238n     355.7470n     665.0238n    
 l eff             192.5619n     192.5619n     201.2131n     192.5619n    
 rd eff              0.            0.            0.            0.         
 rs eff              0.            0.            0.            0.         
 cdsat               0.            0.            0.            0.         
 cssat               0.            0.            0.            0.         
 capbd               1.7828f       1.7828f       1.2672f       1.7828f    
 capbs               1.7828f       1.7828f       1.2672f       1.7828f    
 temp               25.0000       25.0000       25.0000       25.0000     
 aic                                                                      
 nf                  1.0000        1.0000        1.0000        1.0000     
 sa                  0.            0.            0.            0.         
 sb                  0.            0.            0.            0.         
 sd                  0.            0.            0.            0.         
 saeff               0.            0.            0.            0.         
 sbeff               0.            0.            0.            0.         
 mulu0               1.0000        1.0000        1.0000        1.0000     
 mulua               1.0000        1.0000        1.0000        1.0000     
 mulub               1.0000        1.0000        1.0000        1.0000     
  
  
                                
 element name        6:mn0      
 drain               2:1        
 gate                0:wr_en    
 source              0:0        
 bulk                0:0        
 model               0:tsmc25dn 
 w eff             355.7470n    
 l eff             201.2131n    
 rd eff              0.         
 rs eff              0.         
 cdsat               0.         
 cssat               0.         
 capbd               1.2672f    
 capbs               1.2672f    
 temp               25.0000     
 aic                            
 nf                  1.0000     
 sa                  0.         
 sb                  0.         
 sd                  0.         
 saeff               0.         
 sbeff               0.         
 mulu0               1.0000     
 mulua               1.0000     
 mulub               1.0000     
  


 **** subcircuit calls
    name        subcircuit         external nodes


         0:xi5      sub2            0:wr          0:wr_en       0:bl      
         0:xi6      sub2            0:net027      0:wr_en       0:blb     
         0:xi4      sub1            0:wr          0:net027  
         0:xi3      sub3            0:rd_en       0:bl          0:blb     
                               0:val     


         1:xi0      sub1            0:wr_en       1:1       
         2:xi0      sub1            0:wr_en       2:1       
  
1****** HSPICE -- F-2011.09-SP2 32-BIT (Feb 27 2012) linux ******               
 ******  
 * 'sup' is a variable you set to adjust the supply voltage

  ******  element node table
                                                                                      
 0                vrden2           vvdd             vwl4             vwr2             
                  vwren4           mn4:b            mn2:b            mn1:s            
                  mn1:b            mn0:s            mn0:b            xi5.mn2:s        
                  xi5.mn2:b        xi5.mn1:s        xi5.mn1:b        xi5.mn0:b        
                  xi6.mn2:s        xi6.mn2:b        xi6.mn1:s        xi6.mn1:b        
                  xi6.mn0:b        xi4.mn0:s        xi4.mn0:b        xi3.mn2:s        
                  xi3.mn2:b        xi3.mn1:b        xi3.mn0:b        5:mn0:s          
                  5:mn0:b          6:mn0:s          6:mn0:b                           
 a                vwl2             vwl3                                               
 b                vwr              vwr2                                               
 bl               mn4:d            xi5.mn0:d        xi5.mp2:d        xi3.mn0:g        
 blb              mn2:d            xi6.mn0:d        xi6.mp2:d        xi3.mn1:g        
 net027           xi6.mn2:g        xi6.mp0:g        xi4.mp0:d        xi4.mn0:d        
 net14            mn2:s            mn1:g            mn0:d            mp1:g            
                  mp0:d                                                               
 net7             mn4:s            mn1:d            mn0:g            mp1:d            
                  mp0:g                                                               
 q                vrden            vrden2                                             
 rd_en            vrden            xi3.mn2:g                                          
 tmp              vwl              vwl2                                               
 tmp2             vwren            vwren2                                             
 tmp3             vwren2           vwren3                                             
 tmp4             vwren3           vwren4                                             
 val              xi3.mn1:d        xi3.mp1:d                                          
 vdd!             vvdd             mp1:s            mp1:b            mp0:s            
                  mp0:b            xi5.mp2:b        xi5.mp1:s        xi5.mp1:b        
                  xi5.mp0:s        xi5.mp0:b        xi6.mp2:b        xi6.mp1:s        
                  xi6.mp1:b        xi6.mp0:s        xi6.mp0:b        xi4.mp0:s        
                  xi4.mp0:b        xi3.mp1:s        xi3.mp1:b        xi3.mp0:s        
                  xi3.mp0:b        5:mp0:s          5:mp0:b          6:mp0:s          
                  6:mp0:b                                                             
 wl               vwl              mn4:g            mn2:g                             
 wr               vwr              xi5.mn2:g        xi5.mp0:g        xi4.mp0:g        
                  xi4.mn0:g                                                           
 wr_en            vwren            xi5.mn0:g        xi6.mn0:g        5:mp0:g          
                  5:mn0:g          6:mp0:g          6:mn0:g                           
 x                vwl3             vwl4                                               
 xi5.1            xi5.mp2:g        5:mp0:d          5:mn0:d                           
 xi5.net10        xi5.mn1:d        xi5.mn0:s                                          
 xi5.net21        xi5.mp2:s        xi5.mp1:d                                          
 xi5.net6         xi5.mn2:d        xi5.mn1:g        xi5.mp1:g        xi5.mp0:d        
 xi6.1            xi6.mp2:g        6:mp0:d          6:mn0:d                           
 xi6.net10        xi6.mn1:d        xi6.mn0:s                                          
 xi6.net21        xi6.mp2:s        xi6.mp1:d                                          
 xi6.net6         xi6.mn2:d        xi6.mn1:g        xi6.mp1:g        xi6.mp0:d        
 xi3.net17        xi3.mn0:d        xi3.mp1:g        xi3.mp0:d        xi3.mp0:g        
 xi3.net20        xi3.mn2:d        xi3.mn1:s        xi3.mn0:s                         
 **info** set option symb=1 internally to help for convergence.
 *****************************************************************
 ******  option summary
 ******
 runlvl  = 5         bypass  = 2         
  Opening plot unit= 15
 file=sim_deck.pa0                                                             

1****** HSPICE -- F-2011.09-SP2 32-BIT (Feb 27 2012) linux ******               
 ******  
 * 'sup' is a variable you set to adjust the supply voltage

  ******  temperature-adjusted values tnom=  25.000 temp=  25.000 *****

 constants  - temp             kt               vt               gapsi            ni
            298.1500         4.116e-21         25.6918m          1.1156         1.256e+16      


 *** mosfet element parameters
 name             rd eff           rs eff           cdsat            cssat              vto                beta


        0:mn4                 0.               0.               0.               0.             449.6554m        637.9378u      
        0:mn2                 0.               0.               0.               0.             449.6554m        637.9378u      
        0:mn1                 0.               0.               0.               0.             449.6554m        637.9378u      
        0:mn0                 0.               0.               0.               0.             449.6554m        637.9378u      
        0:mp1                 0.               0.               0.               0.            -549.0702m        238.1472u      
        0:mp0                 0.               0.               0.               0.            -549.0702m        238.1472u      
        1:mn2                 0.               0.               0.               0.             449.6554m        637.9378u      
        1:mn1                 0.               0.               0.               0.             440.2187m          1.2835m      
        1:mn0                 0.               0.               0.               0.             440.2187m          1.2835m      
        1:mp2                 0.               0.               0.               0.            -601.1614m          1.0814m      
        1:mp1                 0.               0.               0.               0.            -601.1614m          1.0814m      
        1:mp0                 0.               0.               0.               0.            -585.2331m        519.2170u      
        2:mn2                 0.               0.               0.               0.             449.6554m        637.9378u      
        2:mn1                 0.               0.               0.               0.             440.2187m          1.2835m      
        2:mn0                 0.               0.               0.               0.             440.2187m          1.2835m      
        2:mp2                 0.               0.               0.               0.            -601.1614m          1.0814m      
        2:mp1                 0.               0.               0.               0.            -601.1614m          1.0814m      
        2:mp0                 0.               0.               0.               0.            -585.2331m        519.2170u      
        3:mp0                 0.               0.               0.               0.            -585.2331m        519.2170u      
        3:mn0                 0.               0.               0.               0.             449.6554m        637.9378u      
        4:mn2                 0.               0.               0.               0.             449.6554m        637.9378u      
        4:mn1                 0.               0.               0.               0.             449.6554m        637.9378u      
        4:mn0                 0.               0.               0.               0.             449.6554m        637.9378u      
        4:mp1                 0.               0.               0.               0.            -585.2331m        519.2170u      
        4:mp0                 0.               0.               0.               0.            -585.2331m        519.2170u      
        5:mp0                 0.               0.               0.               0.            -585.2331m        519.2170u      
        5:mn0                 0.               0.               0.               0.             449.6554m        637.9378u      
        6:mp0                 0.               0.               0.               0.            -585.2331m        519.2170u      
        6:mn0                 0.               0.               0.               0.             449.6554m        637.9378u      
 **warning** Due to a floating point overflow problem,
             the damped pseudo-tran method was used.

  *** initial damped pseudo transient completed. ***
  *** final try started ***
  *** final try succeeded *** 
1****** HSPICE -- F-2011.09-SP2 32-BIT (Feb 27 2012) linux ******               
 ******  
 * 'sup' is a variable you set to adjust the supply voltage

  ******  operating point information tnom=  25.000 temp=  25.000 *****
 ***** operating point status is voltage   simulation time is     0.     
    node    =voltage      node    =voltage      node    =voltage

 +0:a       =   0.      0:b       =   0.      0:bl      = 296.5952m
 +0:blb     =   2.1161  0:net027  =   2.5000  0:net14   =   1.0548 
 +0:net7    =   1.0548  0:q       =   0.      0:rd_en   =   0.     
 +0:tmp     =   0.      0:tmp2    =   0.      0:tmp3    =   0.     
 +0:tmp4    =   0.      0:val     =   1.6684  0:vdd!    =   2.5000 
 +0:wl      =   0.      0:wr      =   0.      0:wr_en   =   0.     
 +0:x       =   0.      1:1       =   2.5000  1:net10   =  11.8641n
 +1:net21   =   2.4545  1:net6    =   2.5000  2:1       =   2.5000 
 +2:net10   =  60.8084m 2:net21   =   2.5000  2:net6    =  20.7178n
 +4:net17   =   2.4909  4:net20   =   1.6677 


          ***** job concluded
1****** HSPICE -- F-2011.09-SP2 32-BIT (Feb 27 2012) linux ******               
 ******  
 * 'sup' is a variable you set to adjust the supply voltage

  ******  job statistics summary tnom=  25.000 temp=  25.000 *****
  
  
 ******  Machine Information  ******
 CPU:
 model name	: Intel(R) Xeon(R) CPU E3-1240 V2 @ 3.40GHz
 cpu MHz	: 3401.000
  
 OS:
 Linux version 2.6.32-431.1.2.0.1.el6.x86_64 (mockbuild@c6b9.bsys.dev.centos.org
 ) (gcc version 4.4.7 20120313 (Red Hat 4.4.7-4) (GCC) ) #1 SMP Fri Dec 13 13:06
 :13 UTC 2013


  ******  HSPICE Threads Information  ******

  Command Line Threads Count :     1
  Available CPU Count        :     8
  Actual Threads Count       :     1


  ******  Circuit Statistics  ******
  # nodes       =      30 # elements   =      42
  # resistors   =       0 # capacitors =       0 # inductors   =       0
  # mutual_inds =       0 # vccs       =       0 # vcvs        =       0
  # cccs        =       0 # ccvs       =       0 # volt_srcs   =      13
  # curr_srcs   =       0 # diodes     =       0 # bjts        =       0
  # jfets       =       0 # mosfets    =      29 # U elements  =       0
  # T elements  =       0 # W elements =       0 # B elements  =       0
  # S elements  =       0 # P elements =       0 # va device   =       0
  # vector_srcs =       0


  ******  Runtime Statistics (seconds)  ******

  analysis           time    # points   tot. iter  conv.iter
  op point           0.00           1          75
  transient          0.09        2001        2397         831 rev=        78
  readin             0.01
  errchk             0.01
  setup              0.00
  output             0.00


           peak memory used         95.98 megabytes
           total cpu time            0.11 seconds
           total elapsed time        0.49 seconds
           job started at     14:44:52 03/19/2014
           job ended   at     14:44:53 03/19/2014


 lic: Release hspice token(s) 
