Using: /usr/local/apps/synopsys/current_hspice/hspice/linux/hspice sim_deck
 ****** HSPICE -- F-2011.09-SP2 32-BIT (Feb 27 2012) linux ******               
  Copyright (C) 2011 Synopsys, Inc. All Rights Reserved.                        
  Unpublished-rights reserved under US copyright laws.
  This program is protected by law and is subject to the
  terms and conditions of the license agreement from Synopsys.
  Use of this program is your acceptance to be bound by the
  license agreement. HSPICE is the trademark of Synopsys, Inc.
  Input File: sim_deck                                                          
  Command line options: sim_deck
 lic:  
 lic: FLEXlm: v10.8 
 lic: USER:   branaugj             HOSTNAME: dear119-14.engr.oregonstate.edu 
 lic: HOSTID: 7446a0a946ce         PID:      28750 
 lic: Using FLEXlm license file: 
 lic: 7188@license.eecs.oregonstate.edu 
 lic: Checkout 1 hspice 
 lic: License/Maintenance for hspice will expire on 11-aug-2014/2013.03 
 lic: 3(in_use)/50(total) FLOATING license(s) on SERVER license.eecs.oregonstate
 lic:   
 Init: read install configuration file: /usr/local/apps/synopsys/current_hspice/hspice/meta.cfg

 **warning**  runlvl smaller than 5, reset to 5  when accurate turned on
 scientific notation:
 a=10**-18  f=10**-15  p=10**-12  n=10**-9  u=10**-6
 m=10**-3   k=10**3    x=10**6    g=10**9 

 **warning**  runlvl smaller than 5, reset to 5  when accurate turned on
1****** HSPICE -- F-2011.09-SP2 32-BIT (Feb 27 2012) linux ******               
 ******  
 * 'sup' is a variable you set to adjust the supply voltage

  ******  circuit name directory
 circuit number to circuit name directory
   number circuitname                     definition         multiplier
        0 main circuit
        1 xi4.                            sub1               1.00 
        2 xi3.                            sub1               1.00 
        3 xi2.                            sub1               1.00 
        4 xi1.                            sub1               1.00 
        5 xi0.                            sub2               1.00 
        6 xi4.xi5.                        or2_1              1.00 
        7 xi4.xi3.                        lab6_xor_g1        1.00 
        8 xi4.xi2.                        lab6_xor_g1        1.00 
        9 xi4.xi1.                        lab6_xor_g1        1.00 
       10 xi4.xi4.                        and2_2             1.00 
       11 xi4.xi0.                        and2_2             1.00 
       12 xi3.xi5.                        or2_1              1.00 
       13 xi3.xi3.                        lab6_xor_g1        1.00 
       14 xi3.xi2.                        lab6_xor_g1        1.00 
       15 xi3.xi1.                        lab6_xor_g1        1.00 
       16 xi3.xi4.                        and2_2             1.00 
       17 xi3.xi0.                        and2_2             1.00 
       18 xi2.xi5.                        or2_1              1.00 
       19 xi2.xi3.                        lab6_xor_g1        1.00 
       20 xi2.xi2.                        lab6_xor_g1        1.00 
       21 xi2.xi1.                        lab6_xor_g1        1.00 
       22 xi2.xi4.                        and2_2             1.00 
       23 xi2.xi0.                        and2_2             1.00 
       24 xi1.xi5.                        or2_1              1.00 
       25 xi1.xi3.                        lab6_xor_g1        1.00 
       26 xi1.xi2.                        lab6_xor_g1        1.00 
       27 xi1.xi1.                        lab6_xor_g1        1.00 
       28 xi1.xi4.                        and2_2             1.00 
       29 xi1.xi0.                        and2_2             1.00 
       30 xi0.xi16.                       or2_1              1.00 
       31 xi0.xi14.                       or2_1              1.00 
       32 xi0.xi15.                       or2_1              1.00 
       33 xi0.xi10.                       or2_1              1.00 
       34 xi0.xi11.                       or2_1              1.00 
       35 xi0.xi8.                        or2_1              1.00 
       36 xi0.xi5.                        or2_1              1.00 
       37 xi0.xi4.                        or2_1              1.00 
       38 xi0.xi1.                        or2_1              1.00 
       39 xi0.xi3.                        or2_1              1.00 
       40 xi0.xi19.                       and2_2             1.00 
       41 xi0.xi18.                       and2_2             1.00 
       42 xi0.xi17.                       and2_2             1.00 
       43 xi0.xi12.                       and2_2             1.00 
       44 xi0.xi13.                       and2_2             1.00 
       45 xi0.xi7.                        and2_2             1.00 
       46 xi0.xi6.                        and2_2             1.00 
       47 xi0.xi2.                        and2_2             1.00 
       48 xi0.xi0.                        and2_2             1.00 
       49 xi0.xi9.                        and2_2             1.00 


 circuit parameter definitions
  parameter          =  value 

     0:sup                                                     =   2.5000       
     0:tplh                                                    =   0.           
     0:static_current                                          =   0.           
     0:static_power                                            =   0.           
     0:start_dynamic                                           =   0.           
     0:stop_dynamic                                            =   0.           
     0:dynamic_current                                         =   0.           
     0:dynamic_power                                           =   0.           




 constants  - tnom         kt           vt           gapsi        ni
            298.15000    4.1163e-21    25.69184m     1.11562    1.2565e+16 
1****** HSPICE -- F-2011.09-SP2 32-BIT (Feb 27 2012) linux ******               
 ******  
 * 'sup' is a variable you set to adjust the supply voltage

  ******  mos   model parameters tnom=  25.000 temp=  25.000 *****
 ***************************************************************************
 ***        model parameters  model name:   0:tsmc25dn model type:nmos   ***
 ***************************************************************************

   *** general parameters ***
    deriv=   0.           

   ***  level 49  model parameters  ***

      hspver=    2006.03               level=         49         
     version=        3.1            paramchk=          0         
      apwarn=          1                lite=          0         
      vgslim=          0             binUnit=          1         
      capMod=          2               xpart=        0.4         
      mobMod=          1              nqsMod=          0         
      stiMod=          0                 elm=          5         
    sfvtflag=          0                 tox=    5.8e-09 meter   
          xj=      1e-07 meter       binflag=          0         
        lmin=          0 meter          lmax=          0 meter   
        wmin=          0 meter          wmax=          0 meter   
        lref=          0 meter          wref=          0 meter   
        lint=4.39347e-09 meter          wint= 2.1265e-09 meter   
       lmult=          1               wmult=          1         
          ll=          0                 lln=          1         
          lw=          0                 lwn=          1         
         lwl=          0                  wl=          0         
         wln=          1                  ww=          0         
         wwn=          1                 wwl=          0         
         dwg=-3.40903e-09 m/V             dwb=2.79484e-09 m/V^1/2 
          xl=     -3e-08                  xw=          0         
          a0=    1.23186                 ags=   0.304333 V^-1    
          b0=6.67749e-08 meter            b1=      5e-06 meter   
        keta=0.000851805 V^-1           voff=  -0.102605 V       
       ngate=          0 cm^-3           vbx=          0 V       
         vbm=         -3 V                xt=   1.55e-07 meter   
        vth0=   0.430894 V               nch= 2.3549e+17 cm^-3   
        nsub=      6e+16 cm^-3           nlx= 1.4659e-07 meter   
      gamma1=          0 V^-1/2       gamma2=          0 V^-1/2  
          k1=   0.351943 V^1/2            k2=  0.0298493         
          k3=      0.001                 k3b=  0.0592323 V^-1    
          w0=      1e-05 meter          dvt0=  0.0183405         
        dvt1= 0.00489758                dvt2= -0.0252658 V^-1    
       dvt0w=          0 meter^-1      dvt1w=          0 meter^-1
       dvt2w=          0 V^-1           dsub= 0.00304547         
        eta0= 0.00348737                etab=0.000455799 V^-1    
          u0=    455.303 cm^2/V/sec         ua=5.22359e-10 m/V     
          ub=1.10471e-18 (m/V)^2          uc=3.28789e-11 V^-1    
        vsat=     105099 m/sec            a1=          0 v^-1    
          a2=          1               delta=       0.01 V       
        rdsw=    509.568 ohm-um         prwg=  0.0227558 V^-1    
        prwb=     -0.001 V^-1/2           wr=          1         
        pclm=    1.04463             pdiblc1=   0.144195         
     pdiblc2=0.000451338             pdiblcb=-2.81676e-05 V^-1    
      pscbe1=1.76111e+10 V/m          pscbe2=3.77292e-09 V/m     
       drout=   0.469872                pvag=  0.0361824         
     nfactor=   0.134489                cdsc= 0.00152751 f/m^2   
       cdscb=          0 f/V/m^2       cdscd=          0 f/V/m^2 
         cit=          0 f/m^2        alpha0=          0 m/V     
       beta0=         30 V               dlc=4.39347e-09 meter   
         dwc= 2.1265e-09 meter           clc=      1e-07 meter   
         cle=        0.6                cgso=   6.27e-10 f/m     
        cgdo=   6.27e-10 f/m            cgbo=          0 f/m     
        cgsl=          0 f/m            cgdl=          0 f/m     
      ckappa=        0.6                  cf=9.33852e-11 f/m     
        tnom=     300.15 K               kt1=      -0.11 V       
        kt1l=          0                 kt2=      0.022         
         ute=       -1.5                 ua1=   4.31e-09 m/V     
         ub1=  -7.61e-18 (m/V)^2         uc1=   -5.6e-11 m/V^2   
          at=      33000 m/s             prt=          0         
         using Berkeley noise model       noiMod=          1         
        noia=      1e+20                noib=      50000         
        noic=   -1.4e-12                  em=    4.1e+07         
          ef=          1                  af=          1         
          kf=          0              gdsnoi=-1.23457e-29         
         using Hspice diodes            using ACM 
         acm=         0                 hdif=         0 meter    
        ldif=         0 meter             js=         0 amp/m^2  
         jsw=         0 amp/m            xti=         0          
           n=         1                   cj=0.00191866 f/m^2    
          mj=  0.472173                   pb=  0.978405 V        
        cjsw=4.44159e-10 f/m             mjsw=  0.287112          
         php=  0.978405 V               pbsw (not used)           
      cjgate=4.44159e-10 f/m            cjswg (not used)           
       mjswg (not used)                 pbswg (not used)           
       lketa=-0.00614406               wketa=0.000751269         
       pvth0= 0.00134299                 pk2=-0.00314072         
       prdsw=   -61.8357         
 ***************************************************************************
 ***        model parameters  model name:   0:tsmc25dp model type:pmos   ***
 ***************************************************************************

   *** general parameters ***
    deriv=   0.           

   ***  level 49  model parameters  ***

      hspver=    2006.03               level=         49         
     version=        3.1            paramchk=          0         
      apwarn=          1                lite=          0         
      vgslim=          0             binUnit=          1         
      capMod=          2               xpart=        0.4         
      mobMod=          1              nqsMod=          0         
      stiMod=          0                 elm=          5         
    sfvtflag=          0                 tox=    5.8e-09 meter   
          xj=      1e-07 meter       binflag=          0         
        lmin=          0 meter          lmax=          0 meter   
        wmin=          0 meter          wmax=          0 meter   
        lref=          0 meter          wref=          0 meter   
        lint=8.71907e-09 meter          wint=2.74881e-08 meter   
       lmult=          1               wmult=          1         
          ll=          0                 lln=          1         
          lw=          0                 lwn=          1         
         lwl=          0                  wl=          0         
         wln=          1                  ww=          0         
         wwn=          1                 wwl=          0         
         dwg=-4.08759e-08 m/V             dwb=2.03201e-08 m/V^1/2 
          xl=     -3e-08                  xw=          0         
          a0=    1.38264                 ags=   0.419298 V^-1    
          b0= 2.8441e-06 meter            b1=      5e-06 meter   
        keta=  0.0208695 V^-1           voff=      -0.15 V       
       ngate=          0 cm^-3           vbx=          0 V       
         vbm=         -3 V                xt=   1.55e-07 meter   
        vth0=  -0.615873 V               nch= 4.1589e+17 cm^-3   
        nsub=      6e+16 cm^-3           nlx=      1e-09 meter   
      gamma1=          0 V^-1/2       gamma2=          0 V^-1/2  
          k1=   0.459838 V^1/2            k2=  0.0399415         
          k3=          0                 k3b=    8.74107 V^-1    
          w0=      1e-06 meter          dvt0=   0.624949         
        dvt1=   0.203296                dvt2= -0.0513763 V^-1    
       dvt0w=          0 meter^-1      dvt1w=          0 meter^-1
       dvt2w=          0 V^-1           dsub=    1.02871         
        eta0=   0.324124                etab=    -0.1842 V^-1    
          u0=    158.675 cm^2/V/sec         ua=2.20002e-10 m/V     
          ub=4.45742e-18 (m/V)^2          uc=1.02138e-10 V^-1    
        vsat=     185064 m/sec            a1=          0 v^-1    
          a2=          1               delta=       0.01 V       
        rdsw=    968.546 ohm-um         prwg=  -0.102648 V^-1    
        prwb=     -0.325 V^-1/2           wr=          1         
        pclm=    5.26546             pdiblc1= 0.00422834         
     pdiblc2= 0.00120452             pdiblcb= 0.00237525 V^-1    
      pscbe1=3.01146e+10 V/m          pscbe2=3.03704e-07 V/m     
       drout=          0                pvag=    8.95643         
     nfactor=    1.54605                cdsc=0.000141332 f/m^2   
       cdscb=          0 f/V/m^2       cdscd=          0 f/V/m^2 
         cit=          0 f/m^2        alpha0=          0 m/V     
       beta0=         30 V               dlc=8.71907e-09 meter   
         dwc=2.74881e-08 meter           clc=      1e-07 meter   
         cle=        0.6                cgso=   5.59e-10 f/m     
        cgdo=   5.59e-10 f/m            cgbo=          0 f/m     
        cgsl=          0 f/m            cgdl=          0 f/m     
      ckappa=        0.6                  cf=9.33852e-11 f/m     
        tnom=     300.15 K               kt1=      -0.11 V       
        kt1l=          0                 kt2=      0.022         
         ute=       -1.5                 ua1=   4.31e-09 m/V     
         ub1=  -7.61e-18 (m/V)^2         uc1=   -5.6e-11 m/V^2   
          at=      33000 m/s             prt=          0         
         using Berkeley noise model       noiMod=          1         
        noia=    9.9e+18                noib=       2400         
        noic=    1.4e-12                  em=    4.1e+07         
          ef=          1                  af=          1         
          kf=          0              gdsnoi=-1.23457e-29         
         using Hspice diodes            using ACM 
         acm=         0                 hdif=         0 meter    
        ldif=         0 meter             js=         0 amp/m^2  
         jsw=         0 amp/m            xti=         0          
           n=         1                   cj=0.00188286 f/m^2    
          mj=  0.467979                   pb=  0.989132 V        
        cjsw=3.67186e-10 f/m             mjsw=  0.356213          
         php=  0.989132 V               pbsw (not used)           
      cjgate=3.67186e-10 f/m            cjswg (not used)           
       mjswg (not used)                 pbswg (not used)           
       lketa= -0.0232426               lvsat=     125700         
       wketa= 0.00410049               pvth0= 0.00392376         
         pk2= 0.00206176               prdsw=    15.3953         
  **info** (sim_deck:39) DC voltage reset to initial transient source value              in source        0:vc0                 new dc=  0.2500D+01
  **warning** (sim_deck:39) pulse vc0 period too small, reset to   2.0210000E-08
  **warning** (sim_deck:4) Both nodes of element vgnd are connected together; Line ignored.
 

1****** HSPICE -- F-2011.09-SP2 32-BIT (Feb 27 2012) linux ******               
 ******  
 * 'sup' is a variable you set to adjust the supply voltage

  ******  circuit element summary tnom=  25.000 temp=  25.000 *****


 **** independent sources

     name         node1        node2      dc volt    ac mag    ac phase    type
  va0  a0                0                    2.5000     0.         0.      dc   
  va1  a1                0                    0.         0.         0.      dc   
  va2  a2                0                    2.5000     0.         0.      dc   
  va3  a3                0                    0.         0.         0.      dc   
  vb0  b0                0                    0.         0.         0.      dc   
  vb1  b1                0                    2.5000     0.         0.      dc   
  vb2  b2                0                    0.         0.         0.      dc   
  vb3  b3                0                    2.5000     0.         0.      dc   
  vc0  c0                0                    2.5000     0.         0.      pulse
             initial value     2.5000 
             pulsed value.     0.     
             delay time...     2.0000n
             risetime.....   200.0000p
             falltime.....    10.0000p
             width........    20.0000n
             period.......    20.2100n

  vvdd  vdd!              0                    2.5000     0.         0.      dc   


 **** mosfets


 **** BSIM3v3 Model (Level49 or Level53)
  
  
                                                                          
 element name        6:m5          6:m3          6:m2          6:m4       
 drain               0:net28       6:net11       6:net21       0:net28    
 gate                6:net21       0:net50       1:net09       6:net21    
 source              0:vdd!        0:vdd!        6:net11       0:0        
 bulk                0:vdd!        0:vdd!        0:vdd!        0:0        
 model               0:tsmc25dp    0:tsmc25dp    0:tsmc25dp    0:tsmc25dn 
 w eff               1.3850u       1.3850u       1.3850u     355.7470n    
 l eff             192.5619n     192.5619n     192.5619n     201.2131n    
 rd eff              0.            0.            0.            0.         
 rs eff              0.            0.            0.            0.         
 cdsat               0.            0.            0.            0.         
 cssat               0.            0.            0.            0.         
 capbd               3.1249f       3.1249f       3.1249f       1.2672f    
 capbs               3.1249f       3.1249f       3.1249f       1.2672f    
 temp               25.0000       25.0000       25.0000       25.0000     
 aic              off           off           off           off           
 nf                  1.0000        1.0000        1.0000        1.0000     
 sa                  0.            0.            0.            0.         
 sb                  0.            0.            0.            0.         
 sd                  0.            0.            0.            0.         
 saeff               0.            0.            0.            0.         
 sbeff               0.            0.            0.            0.         
 mulu0               1.0000        1.0000        1.0000        1.0000     
 mulua               1.0000        1.0000        1.0000        1.0000     
 mulub               1.0000        1.0000        1.0000        1.0000     
  
  
                                                                          
 element name        6:m1          6:m0          7:mn5         7:mn4      
 drain               6:net21       6:net21       7:1           7:2        
 gate                1:net09       0:net50       0:b0          0:a0       
 source              0:0           0:0           0:0           0:0        
 bulk                0:0           0:0           0:0           0:0        
 model               0:tsmc25dn    0:tsmc25dn    0:tsmc25dn    0:tsmc25dn 
 w eff             355.7470n     355.7470n     355.7470n     355.7470n    
 l eff             201.2131n     201.2131n     201.2131n     201.2131n    
 rd eff              0.            0.            0.            0.         
 rs eff              0.            0.            0.            0.         
 cdsat               0.            0.            0.            0.         
 cssat               0.            0.            0.            0.         
 capbd               1.2672f       1.2672f       1.2672f       1.2672f    
 capbs               1.2672f       1.2672f       1.2672f       1.2672f    
 temp               25.0000       25.0000       25.0000       25.0000     
 aic              off           off                                       
 nf                  1.0000        1.0000        1.0000        1.0000     
 sa                  0.            0.            0.            0.         
 sb                  0.            0.            0.            0.         
 sd                  0.            0.            0.            0.         
 saeff               0.            0.            0.            0.         
 sbeff               0.            0.            0.            0.         
 mulu0               1.0000        1.0000        1.0000        1.0000     
 mulua               1.0000        1.0000        1.0000        1.0000     
 mulub               1.0000        1.0000        1.0000        1.0000     
  
  
                                                                          
 element name        7:mn3         7:mn2         7:mn1         7:mn0      
 drain               7:net12       7:net16       0:net46       0:net46    
 gate                7:1           0:b0          0:a0          7:2        
 source              0:0           0:0           7:net16       7:net12    
 bulk                0:0           0:0           0:0           0:0        
 model               0:tsmc25dn    0:tsmc25dn    0:tsmc25dn    0:tsmc25dn 
 w eff             715.7470n     715.7470n     715.7470n     715.7470n    
 l eff             201.2131n     201.2131n     201.2131n     201.2131n    
 rd eff              0.            0.            0.            0.         
 rs eff              0.            0.            0.            0.         
 cdsat               0.            0.            0.            0.         
 cssat               0.            0.            0.            0.         
 capbd               2.0014f       2.0014f       2.0014f       2.0014f    
 capbs               2.0014f       2.0014f       2.0014f       2.0014f    
 temp               25.0000       25.0000       25.0000       25.0000     
 aic                                                                      
 nf                  1.0000        1.0000        1.0000        1.0000     
 sa                  0.            0.            0.            0.         
 sb                  0.            0.            0.            0.         
 sd                  0.            0.            0.            0.         
 saeff               0.            0.            0.            0.         
 sbeff               0.            0.            0.            0.         
 mulu0               1.0000        1.0000        1.0000        1.0000     
 mulua               1.0000        1.0000        1.0000        1.0000     
 mulub               1.0000        1.0000        1.0000        1.0000     
  
  
                                                                          
 element name        7:mp5         7:mp4         7:mp3         7:mp2      
 drain               7:1           7:2           0:net46       7:net47    
 gate                0:b0          0:a0          7:1           0:b0       
 source              0:vdd!        0:vdd!        7:net47       0:vdd!     
 bulk                0:vdd!        0:vdd!        0:vdd!        0:vdd!     
 model               0:tsmc25dp    0:tsmc25dp    0:tsmc25dp    0:tsmc25dp 
 w eff             665.0238n     665.0238n       1.3850u       1.3850u    
 l eff             192.5619n     192.5619n     192.5619n     192.5619n    
 rd eff              0.            0.            0.            0.         
 rs eff              0.            0.            0.            0.         
 cdsat               0.            0.            0.            0.         
 cssat               0.            0.            0.            0.         
 capbd               1.7828f       1.7828f       3.1249f       3.1249f    
 capbs               1.7828f       1.7828f       3.1249f       3.1249f    
 temp               25.0000       25.0000       25.0000       25.0000     
 aic                                                                      
 nf                  1.0000        1.0000        1.0000        1.0000     
 sa                  0.            0.            0.            0.         
 sb                  0.            0.            0.            0.         
 sd                  0.            0.            0.            0.         
 saeff               0.            0.            0.            0.         
 sbeff               0.            0.            0.            0.         
 mulu0               1.0000        1.0000        1.0000        1.0000     
 mulua               1.0000        1.0000        1.0000        1.0000     
 mulub               1.0000        1.0000        1.0000        1.0000     
  
  
                                                                          
 element name        7:mp1         7:mp0         8:mn5         8:mn4      
 drain               0:net46       7:net47       8:1           8:2        
 gate                7:2           0:a0          0:a0          0:c0       
 source              7:net47       0:vdd!        0:0           0:0        
 bulk                0:vdd!        0:vdd!        0:0           0:0        
 model               0:tsmc25dp    0:tsmc25dp    0:tsmc25dn    0:tsmc25dn 
 w eff               1.3850u       1.3850u     355.7470n     355.7470n    
 l eff             192.5619n     192.5619n     201.2131n     201.2131n    
 rd eff              0.            0.            0.            0.         
 rs eff              0.            0.            0.            0.         
 cdsat               0.            0.            0.            0.         
 cssat               0.            0.            0.            0.         
 capbd               3.1249f       3.1249f       1.2672f       1.2672f    
 capbs               3.1249f       3.1249f       1.2672f       1.2672f    
 temp               25.0000       25.0000       25.0000       25.0000     
 aic                                                                      
 nf                  1.0000        1.0000        1.0000        1.0000     
 sa                  0.            0.            0.            0.         
 sb                  0.            0.            0.            0.         
 sd                  0.            0.            0.            0.         
 saeff               0.            0.            0.            0.         
 sbeff               0.            0.            0.            0.         
 mulu0               1.0000        1.0000        1.0000        1.0000     
 mulua               1.0000        1.0000        1.0000        1.0000     
 mulub               1.0000        1.0000        1.0000        1.0000     
  
  
                                                                          
 element name        8:mn3         8:mn2         8:mn1         8:mn0      
 drain               8:net12       8:net16       1:net018      1:net018   
 gate                8:1           0:a0          0:c0          8:2        
 source              0:0           0:0           8:net16       8:net12    
 bulk                0:0           0:0           0:0           0:0        
 model               0:tsmc25dn    0:tsmc25dn    0:tsmc25dn    0:tsmc25dn 
 w eff             715.7470n     715.7470n     715.7470n     715.7470n    
 l eff             201.2131n     201.2131n     201.2131n     201.2131n    
 rd eff              0.            0.            0.            0.         
 rs eff              0.            0.            0.            0.         
 cdsat               0.            0.            0.            0.         
 cssat               0.            0.            0.            0.         
 capbd               2.0014f       2.0014f       2.0014f       2.0014f    
 capbs               2.0014f       2.0014f       2.0014f       2.0014f    
 temp               25.0000       25.0000       25.0000       25.0000     
 aic                                                                      
 nf                  1.0000        1.0000        1.0000        1.0000     
 sa                  0.            0.            0.            0.         
 sb                  0.            0.            0.            0.         
 sd                  0.            0.            0.            0.         
 saeff               0.            0.            0.            0.         
 sbeff               0.            0.            0.            0.         
 mulu0               1.0000        1.0000        1.0000        1.0000     
 mulua               1.0000        1.0000        1.0000        1.0000     
 mulub               1.0000        1.0000        1.0000        1.0000     
  
  
                                                                          
 element name        8:mp5         8:mp4         8:mp3         8:mp2      
 drain               8:1           8:2           1:net018      8:net47    
 gate                0:a0          0:c0          8:1           0:a0       
 source              0:vdd!        0:vdd!        8:net47       0:vdd!     
 bulk                0:vdd!        0:vdd!        0:vdd!        0:vdd!     
 model               0:tsmc25dp    0:tsmc25dp    0:tsmc25dp    0:tsmc25dp 
 w eff             665.0238n     665.0238n       1.3850u       1.3850u    
 l eff             192.5619n     192.5619n     192.5619n     192.5619n    
 rd eff              0.            0.            0.            0.         
 rs eff              0.            0.            0.            0.         
 cdsat               0.            0.            0.            0.         
 cssat               0.            0.            0.            0.         
 capbd               1.7828f       1.7828f       3.1249f       3.1249f    
 capbs               1.7828f       1.7828f       3.1249f       3.1249f    
 temp               25.0000       25.0000       25.0000       25.0000     
 aic                                                                      
 nf                  1.0000        1.0000        1.0000        1.0000     
 sa                  0.            0.            0.            0.         
 sb                  0.            0.            0.            0.         
 sd                  0.            0.            0.            0.         
 saeff               0.            0.            0.            0.         
 sbeff               0.            0.            0.            0.         
 mulu0               1.0000        1.0000        1.0000        1.0000     
 mulua               1.0000        1.0000        1.0000        1.0000     
 mulub               1.0000        1.0000        1.0000        1.0000     
  
  
                                                                          
 element name        8:mp1         8:mp0         9:mn5         9:mn4      
 drain               1:net018      8:net47       9:1           9:2        
 gate                8:2           0:c0          0:b0          1:net018   
 source              8:net47       0:vdd!        0:0           0:0        
 bulk                0:vdd!        0:vdd!        0:0           0:0        
 model               0:tsmc25dp    0:tsmc25dp    0:tsmc25dn    0:tsmc25dn 
 w eff               1.3850u       1.3850u     355.7470n     355.7470n    
 l eff             192.5619n     192.5619n     201.2131n     201.2131n    
 rd eff              0.            0.            0.            0.         
 rs eff              0.            0.            0.            0.         
 cdsat               0.            0.            0.            0.         
 cssat               0.            0.            0.            0.         
 capbd               3.1249f       3.1249f       1.2672f       1.2672f    
 capbs               3.1249f       3.1249f       1.2672f       1.2672f    
 temp               25.0000       25.0000       25.0000       25.0000     
 aic                                                                      
 nf                  1.0000        1.0000        1.0000        1.0000     
 sa                  0.            0.            0.            0.         
 sb                  0.            0.            0.            0.         
 sd                  0.            0.            0.            0.         
 saeff               0.            0.            0.            0.         
 sbeff               0.            0.            0.            0.         
 mulu0               1.0000        1.0000        1.0000        1.0000     
 mulua               1.0000        1.0000        1.0000        1.0000     
 mulub               1.0000        1.0000        1.0000        1.0000     
  
  
                                                                          
 element name        9:mn3         9:mn2         9:mn1         9:mn0      
 drain               9:net12       9:net16       0:s0          0:s0       
 gate                9:1           0:b0          1:net018      9:2        
 source              0:0           0:0           9:net16       9:net12    
 bulk                0:0           0:0           0:0           0:0        
 model               0:tsmc25dn    0:tsmc25dn    0:tsmc25dn    0:tsmc25dn 
 w eff             715.7470n     715.7470n     715.7470n     715.7470n    
 l eff             201.2131n     201.2131n     201.2131n     201.2131n    
 rd eff              0.            0.            0.            0.         
 rs eff              0.            0.            0.            0.         
 cdsat               0.            0.            0.            0.         
 cssat               0.            0.            0.            0.         
 capbd               2.0014f       2.0014f       2.0014f       2.0014f    
 capbs               2.0014f       2.0014f       2.0014f       2.0014f    
 temp               25.0000       25.0000       25.0000       25.0000     
 aic                                                                      
 nf                  1.0000        1.0000        1.0000        1.0000     
 sa                  0.            0.            0.            0.         
 sb                  0.            0.            0.            0.         
 sd                  0.            0.            0.            0.         
 saeff               0.            0.            0.            0.         
 sbeff               0.            0.            0.            0.         
 mulu0               1.0000        1.0000        1.0000        1.0000     
 mulua               1.0000        1.0000        1.0000        1.0000     
 mulub               1.0000        1.0000        1.0000        1.0000     
  
  
                                                                          
 element name        9:mp5         9:mp4         9:mp3         9:mp2      
 drain               9:1           9:2           0:s0          9:net47    
 gate                0:b0          1:net018      9:1           0:b0       
 source              0:vdd!        0:vdd!        9:net47       0:vdd!     
 bulk                0:vdd!        0:vdd!        0:vdd!        0:vdd!     
 model               0:tsmc25dp    0:tsmc25dp    0:tsmc25dp    0:tsmc25dp 
 w eff             665.0238n     665.0238n       1.3850u       1.3850u    
 l eff             192.5619n     192.5619n     192.5619n     192.5619n    
 rd eff              0.            0.            0.            0.         
 rs eff              0.            0.            0.            0.         
 cdsat               0.            0.            0.            0.         
 cssat               0.            0.            0.            0.         
 capbd               1.7828f       1.7828f       3.1249f       3.1249f    
 capbs               1.7828f       1.7828f       3.1249f       3.1249f    
 temp               25.0000       25.0000       25.0000       25.0000     
 aic                                                                      
 nf                  1.0000        1.0000        1.0000        1.0000     
 sa                  0.            0.            0.            0.         
 sb                  0.            0.            0.            0.         
 sd                  0.            0.            0.            0.         
 saeff               0.            0.            0.            0.         
 sbeff               0.            0.            0.            0.         
 mulu0               1.0000        1.0000        1.0000        1.0000     
 mulua               1.0000        1.0000        1.0000        1.0000     
 mulub               1.0000        1.0000        1.0000        1.0000     
  
  
                                                                          
 element name        9:mp1         9:mp0        10:m5         10:m3       
 drain               0:s0          9:net47       1:net09      10:net29    
 gate                9:2           1:net018     10:net29       0:c0       
 source              9:net47       0:vdd!        0:vdd!        0:vdd!     
 bulk                0:vdd!        0:vdd!        0:vdd!        0:vdd!     
 model               0:tsmc25dp    0:tsmc25dp    0:tsmc25dp    0:tsmc25dp 
 w eff               1.3850u       1.3850u     665.0238n     665.0238n    
 l eff             192.5619n     192.5619n     192.5619n     192.5619n    
 rd eff              0.            0.            0.            0.         
 rs eff              0.            0.            0.            0.         
 cdsat               0.            0.            0.            0.         
 cssat               0.            0.            0.            0.         
 capbd               3.1249f       3.1249f       1.7828f       1.7828f    
 capbs               3.1249f       3.1249f       1.7828f       1.7828f    
 temp               25.0000       25.0000       25.0000       25.0000     
 aic                                          off           off           
 nf                  1.0000        1.0000        1.0000        1.0000     
 sa                  0.            0.            0.            0.         
 sb                  0.            0.            0.            0.         
 sd                  0.            0.            0.            0.         
 saeff               0.            0.            0.            0.         
 sbeff               0.            0.            0.            0.         
 mulu0               1.0000        1.0000        1.0000        1.0000     
 mulua               1.0000        1.0000        1.0000        1.0000     
 mulub               1.0000        1.0000        1.0000        1.0000     
  
  
                                                                          
 element name       10:m2         10:m4         10:m1         10:m0       
 drain              10:net29       1:net09      10:net29      10:net11    
 gate                0:net46      10:net29       0:net46       0:c0       
 source              0:vdd!        0:0          10:net11       0:0        
 bulk                0:vdd!        0:0           0:0           0:0        
 model               0:tsmc25dp    0:tsmc25dn    0:tsmc25dn    0:tsmc25dn 
 w eff             665.0238n     355.7470n     355.7470n     355.7470n    
 l eff             192.5619n     201.2131n     201.2131n     201.2131n    
 rd eff              0.            0.            0.            0.         
 rs eff              0.            0.            0.            0.         
 cdsat               0.            0.            0.            0.         
 cssat               0.            0.            0.            0.         
 capbd               1.7828f       1.2672f       1.2672f       1.2672f    
 capbs               1.7828f       1.2672f       1.2672f       1.2672f    
 temp               25.0000       25.0000       25.0000       25.0000     
 aic              off           off           off           off           
 nf                  1.0000        1.0000        1.0000        1.0000     
 sa                  0.            0.            0.            0.         
 sb                  0.            0.            0.            0.         
 sd                  0.            0.            0.            0.         
 saeff               0.            0.            0.            0.         
 sbeff               0.            0.            0.            0.         
 mulu0               1.0000        1.0000        1.0000        1.0000     
 mulua               1.0000        1.0000        1.0000        1.0000     
 mulub               1.0000        1.0000        1.0000        1.0000     
  
  
                                                                          
 element name       11:m5         11:m3         11:m2         11:m4       
 drain               0:net50      11:net29      11:net29       0:net50    
 gate               11:net29       0:b0          0:a0         11:net29    
 source              0:vdd!        0:vdd!        0:vdd!        0:0        
 bulk                0:vdd!        0:vdd!        0:vdd!        0:0        
 model               0:tsmc25dp    0:tsmc25dp    0:tsmc25dp    0:tsmc25dn 
 w eff             665.0238n     665.0238n     665.0238n     355.7470n    
 l eff             192.5619n     192.5619n     192.5619n     201.2131n    
 rd eff              0.            0.            0.            0.         
 rs eff              0.            0.            0.            0.         
 cdsat               0.            0.            0.            0.         
 cssat               0.            0.            0.            0.         
 capbd               1.7828f       1.7828f       1.7828f       1.2672f    
 capbs               1.7828f       1.7828f       1.7828f       1.2672f    
 temp               25.0000       25.0000       25.0000       25.0000     
 aic              off           off           off           off           
 nf                  1.0000        1.0000        1.0000        1.0000     
 sa                  0.            0.            0.            0.         
 sb                  0.            0.            0.            0.         
 sd                  0.            0.            0.            0.         
 saeff               0.            0.            0.            0.         
 sbeff               0.            0.            0.            0.         
 mulu0               1.0000        1.0000        1.0000        1.0000     
 mulua               1.0000        1.0000        1.0000        1.0000     
 mulub               1.0000        1.0000        1.0000        1.0000     
  
  
                                                                          
 element name       11:m1         11:m0         12:m5         12:m3       
 drain              11:net29      11:net11       0:net35      12:net11    
 gate                0:a0          0:b0         12:net21       0:net49    
 source             11:net11       0:0           0:vdd!        0:vdd!     
 bulk                0:0           0:0           0:vdd!        0:vdd!     
 model               0:tsmc25dn    0:tsmc25dn    0:tsmc25dp    0:tsmc25dp 
 w eff             355.7470n     355.7470n       1.3850u       1.3850u    
 l eff             201.2131n     201.2131n     192.5619n     192.5619n    
 rd eff              0.            0.            0.            0.         
 rs eff              0.            0.            0.            0.         
 cdsat               0.            0.            0.            0.         
 cssat               0.            0.            0.            0.         
 capbd               1.2672f       1.2672f       3.1249f       3.1249f    
 capbs               1.2672f       1.2672f       3.1249f       3.1249f    
 temp               25.0000       25.0000       25.0000       25.0000     
 aic              off           off           off           off           
 nf                  1.0000        1.0000        1.0000        1.0000     
 sa                  0.            0.            0.            0.         
 sb                  0.            0.            0.            0.         
 sd                  0.            0.            0.            0.         
 saeff               0.            0.            0.            0.         
 sbeff               0.            0.            0.            0.         
 mulu0               1.0000        1.0000        1.0000        1.0000     
 mulua               1.0000        1.0000        1.0000        1.0000     
 mulub               1.0000        1.0000        1.0000        1.0000     
  
  
                                                                          
 element name       12:m2         12:m4         12:m1         12:m0       
 drain              12:net21       0:net35      12:net21      12:net21    
 gate                2:net09      12:net21       2:net09       0:net49    
 source             12:net11       0:0           0:0           0:0        
 bulk                0:vdd!        0:0           0:0           0:0        
 model               0:tsmc25dp    0:tsmc25dn    0:tsmc25dn    0:tsmc25dn 
 w eff               1.3850u     355.7470n     355.7470n     355.7470n    
 l eff             192.5619n     201.2131n     201.2131n     201.2131n    
 rd eff              0.            0.            0.            0.         
 rs eff              0.            0.            0.            0.         
 cdsat               0.            0.            0.            0.         
 cssat               0.            0.            0.            0.         
 capbd               3.1249f       1.2672f       1.2672f       1.2672f    
 capbs               3.1249f       1.2672f       1.2672f       1.2672f    
 temp               25.0000       25.0000       25.0000       25.0000     
 aic              off           off           off           off           
 nf                  1.0000        1.0000        1.0000        1.0000     
 sa                  0.            0.            0.            0.         
 sb                  0.            0.            0.            0.         
 sd                  0.            0.            0.            0.         
 saeff               0.            0.            0.            0.         
 sbeff               0.            0.            0.            0.         
 mulu0               1.0000        1.0000        1.0000        1.0000     
 mulua               1.0000        1.0000        1.0000        1.0000     
 mulub               1.0000        1.0000        1.0000        1.0000     
  
  
                                                                          
 element name       13:mn5        13:mn4        13:mn3        13:mn2      
 drain              13:1          13:2          13:net12      13:net16    
 gate                0:b1          0:a1         13:1           0:b1       
 source              0:0           0:0           0:0           0:0        
 bulk                0:0           0:0           0:0           0:0        
 model               0:tsmc25dn    0:tsmc25dn    0:tsmc25dn    0:tsmc25dn 
 w eff             355.7470n     355.7470n     715.7470n     715.7470n    
 l eff             201.2131n     201.2131n     201.2131n     201.2131n    
 rd eff              0.            0.            0.            0.         
 rs eff              0.            0.            0.            0.         
 cdsat               0.            0.            0.            0.         
 cssat               0.            0.            0.            0.         
 capbd               1.2672f       1.2672f       2.0014f       2.0014f    
 capbs               1.2672f       1.2672f       2.0014f       2.0014f    
 temp               25.0000       25.0000       25.0000       25.0000     
 aic                                                                      
 nf                  1.0000        1.0000        1.0000        1.0000     
 sa                  0.            0.            0.            0.         
 sb                  0.            0.            0.            0.         
 sd                  0.            0.            0.            0.         
 saeff               0.            0.            0.            0.         
 sbeff               0.            0.            0.            0.         
 mulu0               1.0000        1.0000        1.0000        1.0000     
 mulua               1.0000        1.0000        1.0000        1.0000     
 mulub               1.0000        1.0000        1.0000        1.0000     
  
  
                                                                          
 element name       13:mn1        13:mn0        13:mp5        13:mp4      
 drain               0:net45       0:net45      13:1          13:2        
 gate                0:a1         13:2           0:b1          0:a1       
 source             13:net16      13:net12       0:vdd!        0:vdd!     
 bulk                0:0           0:0           0:vdd!        0:vdd!     
 model               0:tsmc25dn    0:tsmc25dn    0:tsmc25dp    0:tsmc25dp 
 w eff             715.7470n     715.7470n     665.0238n     665.0238n    
 l eff             201.2131n     201.2131n     192.5619n     192.5619n    
 rd eff              0.            0.            0.            0.         
 rs eff              0.            0.            0.            0.         
 cdsat               0.            0.            0.            0.         
 cssat               0.            0.            0.            0.         
 capbd               2.0014f       2.0014f       1.7828f       1.7828f    
 capbs               2.0014f       2.0014f       1.7828f       1.7828f    
 temp               25.0000       25.0000       25.0000       25.0000     
 aic                                                                      
 nf                  1.0000        1.0000        1.0000        1.0000     
 sa                  0.            0.            0.            0.         
 sb                  0.            0.            0.            0.         
 sd                  0.            0.            0.            0.         
 saeff               0.            0.            0.            0.         
 sbeff               0.            0.            0.            0.         
 mulu0               1.0000        1.0000        1.0000        1.0000     
 mulua               1.0000        1.0000        1.0000        1.0000     
 mulub               1.0000        1.0000        1.0000        1.0000     
  
  
                                                                          
 element name       13:mp3        13:mp2        13:mp1        13:mp0      
 drain               0:net45      13:net47       0:net45      13:net47    
 gate               13:1           0:b1         13:2           0:a1       
 source             13:net47       0:vdd!       13:net47       0:vdd!     
 bulk                0:vdd!        0:vdd!        0:vdd!        0:vdd!     
 model               0:tsmc25dp    0:tsmc25dp    0:tsmc25dp    0:tsmc25dp 
 w eff               1.3850u       1.3850u       1.3850u       1.3850u    
 l eff             192.5619n     192.5619n     192.5619n     192.5619n    
 rd eff              0.            0.            0.            0.         
 rs eff              0.            0.            0.            0.         
 cdsat               0.            0.            0.            0.         
 cssat               0.            0.            0.            0.         
 capbd               3.1249f       3.1249f       3.1249f       3.1249f    
 capbs               3.1249f       3.1249f       3.1249f       3.1249f    
 temp               25.0000       25.0000       25.0000       25.0000     
 aic                                                                      
 nf                  1.0000        1.0000        1.0000        1.0000     
 sa                  0.            0.            0.            0.         
 sb                  0.            0.            0.            0.         
 sd                  0.            0.            0.            0.         
 saeff               0.            0.            0.            0.         
 sbeff               0.            0.            0.            0.         
 mulu0               1.0000        1.0000        1.0000        1.0000     
 mulua               1.0000        1.0000        1.0000        1.0000     
 mulub               1.0000        1.0000        1.0000        1.0000     
  
  
                                                                          
 element name       14:mn5        14:mn4        14:mn3        14:mn2      
 drain              14:1          14:2          14:net12      14:net16    
 gate                0:a1          0:net55      14:1           0:a1       
 source              0:0           0:0           0:0           0:0        
 bulk                0:0           0:0           0:0           0:0        
 model               0:tsmc25dn    0:tsmc25dn    0:tsmc25dn    0:tsmc25dn 
 w eff             355.7470n     355.7470n     715.7470n     715.7470n    
 l eff             201.2131n     201.2131n     201.2131n     201.2131n    
 rd eff              0.            0.            0.            0.         
 rs eff              0.            0.            0.            0.         
 cdsat               0.            0.            0.            0.         
 cssat               0.            0.            0.            0.         
 capbd               1.2672f       1.2672f       2.0014f       2.0014f    
 capbs               1.2672f       1.2672f       2.0014f       2.0014f    
 temp               25.0000       25.0000       25.0000       25.0000     
 aic                                                                      
 nf                  1.0000        1.0000        1.0000        1.0000     
 sa                  0.            0.            0.            0.         
 sb                  0.            0.            0.            0.         
 sd                  0.            0.            0.            0.         
 saeff               0.            0.            0.            0.         
 sbeff               0.            0.            0.            0.         
 mulu0               1.0000        1.0000        1.0000        1.0000     
 mulua               1.0000        1.0000        1.0000        1.0000     
 mulub               1.0000        1.0000        1.0000        1.0000     
  
  
                                                                          
 element name       14:mn1        14:mn0        14:mp5        14:mp4      
 drain               2:net018      2:net018     14:1          14:2        
 gate                0:net55      14:2           0:a1          0:net55    
 source             14:net16      14:net12       0:vdd!        0:vdd!     
 bulk                0:0           0:0           0:vdd!        0:vdd!     
 model               0:tsmc25dn    0:tsmc25dn    0:tsmc25dp    0:tsmc25dp 
 w eff             715.7470n     715.7470n     665.0238n     665.0238n    
 l eff             201.2131n     201.2131n     192.5619n     192.5619n    
 rd eff              0.            0.            0.            0.         
 rs eff              0.            0.            0.            0.         
 cdsat               0.            0.            0.            0.         
 cssat               0.            0.            0.            0.         
 capbd               2.0014f       2.0014f       1.7828f       1.7828f    
 capbs               2.0014f       2.0014f       1.7828f       1.7828f    
 temp               25.0000       25.0000       25.0000       25.0000     
 aic                                                                      
 nf                  1.0000        1.0000        1.0000        1.0000     
 sa                  0.            0.            0.            0.         
 sb                  0.            0.            0.            0.         
 sd                  0.            0.            0.            0.         
 saeff               0.            0.            0.            0.         
 sbeff               0.            0.            0.            0.         
 mulu0               1.0000        1.0000        1.0000        1.0000     
 mulua               1.0000        1.0000        1.0000        1.0000     
 mulub               1.0000        1.0000        1.0000        1.0000     
  
  
                                                                          
 element name       14:mp3        14:mp2        14:mp1        14:mp0      
 drain               2:net018     14:net47       2:net018     14:net47    
 gate               14:1           0:a1         14:2           0:net55    
 source             14:net47       0:vdd!       14:net47       0:vdd!     
 bulk                0:vdd!        0:vdd!        0:vdd!        0:vdd!     
 model               0:tsmc25dp    0:tsmc25dp    0:tsmc25dp    0:tsmc25dp 
 w eff               1.3850u       1.3850u       1.3850u       1.3850u    
 l eff             192.5619n     192.5619n     192.5619n     192.5619n    
 rd eff              0.            0.            0.            0.         
 rs eff              0.            0.            0.            0.         
 cdsat               0.            0.            0.            0.         
 cssat               0.            0.            0.            0.         
 capbd               3.1249f       3.1249f       3.1249f       3.1249f    
 capbs               3.1249f       3.1249f       3.1249f       3.1249f    
 temp               25.0000       25.0000       25.0000       25.0000     
 aic                                                                      
 nf                  1.0000        1.0000        1.0000        1.0000     
 sa                  0.            0.            0.            0.         
 sb                  0.            0.            0.            0.         
 sd                  0.            0.            0.            0.         
 saeff               0.            0.            0.            0.         
 sbeff               0.            0.            0.            0.         
 mulu0               1.0000        1.0000        1.0000        1.0000     
 mulua               1.0000        1.0000        1.0000        1.0000     
 mulub               1.0000        1.0000        1.0000        1.0000     
  
  
                                                                          
 element name       15:mn5        15:mn4        15:mn3        15:mn2      
 drain              15:1          15:2          15:net12      15:net16    
 gate                0:b1          2:net018     15:1           0:b1       
 source              0:0           0:0           0:0           0:0        
 bulk                0:0           0:0           0:0           0:0        
 model               0:tsmc25dn    0:tsmc25dn    0:tsmc25dn    0:tsmc25dn 
 w eff             355.7470n     355.7470n     715.7470n     715.7470n    
 l eff             201.2131n     201.2131n     201.2131n     201.2131n    
 rd eff              0.            0.            0.            0.         
 rs eff              0.            0.            0.            0.         
 cdsat               0.            0.            0.            0.         
 cssat               0.            0.            0.            0.         
 capbd               1.2672f       1.2672f       2.0014f       2.0014f    
 capbs               1.2672f       1.2672f       2.0014f       2.0014f    
 temp               25.0000       25.0000       25.0000       25.0000     
 aic                                                                      
 nf                  1.0000        1.0000        1.0000        1.0000     
 sa                  0.            0.            0.            0.         
 sb                  0.            0.            0.            0.         
 sd                  0.            0.            0.            0.         
 saeff               0.            0.            0.            0.         
 sbeff               0.            0.            0.            0.         
 mulu0               1.0000        1.0000        1.0000        1.0000     
 mulua               1.0000        1.0000        1.0000        1.0000     
 mulub               1.0000        1.0000        1.0000        1.0000     
  
  
                                                                          
 element name       15:mn1        15:mn0        15:mp5        15:mp4      
 drain               0:s1          0:s1         15:1          15:2        
 gate                2:net018     15:2           0:b1          2:net018   
 source             15:net16      15:net12       0:vdd!        0:vdd!     
 bulk                0:0           0:0           0:vdd!        0:vdd!     
 model               0:tsmc25dn    0:tsmc25dn    0:tsmc25dp    0:tsmc25dp 
 w eff             715.7470n     715.7470n     665.0238n     665.0238n    
 l eff             201.2131n     201.2131n     192.5619n     192.5619n    
 rd eff              0.            0.            0.            0.         
 rs eff              0.            0.            0.            0.         
 cdsat               0.            0.            0.            0.         
 cssat               0.            0.            0.            0.         
 capbd               2.0014f       2.0014f       1.7828f       1.7828f    
 capbs               2.0014f       2.0014f       1.7828f       1.7828f    
 temp               25.0000       25.0000       25.0000       25.0000     
 aic                                                                      
 nf                  1.0000        1.0000        1.0000        1.0000     
 sa                  0.            0.            0.            0.         
 sb                  0.            0.            0.            0.         
 sd                  0.            0.            0.            0.         
 saeff               0.            0.            0.            0.         
 sbeff               0.            0.            0.            0.         
 mulu0               1.0000        1.0000        1.0000        1.0000     
 mulua               1.0000        1.0000        1.0000        1.0000     
 mulub               1.0000        1.0000        1.0000        1.0000     
  
  
                                                                          
 element name       15:mp3        15:mp2        15:mp1        15:mp0      
 drain               0:s1         15:net47       0:s1         15:net47    
 gate               15:1           0:b1         15:2           2:net018   
 source             15:net47       0:vdd!       15:net47       0:vdd!     
 bulk                0:vdd!        0:vdd!        0:vdd!        0:vdd!     
 model               0:tsmc25dp    0:tsmc25dp    0:tsmc25dp    0:tsmc25dp 
 w eff               1.3850u       1.3850u       1.3850u       1.3850u    
 l eff             192.5619n     192.5619n     192.5619n     192.5619n    
 rd eff              0.            0.            0.            0.         
 rs eff              0.            0.            0.            0.         
 cdsat               0.            0.            0.            0.         
 cssat               0.            0.            0.            0.         
 capbd               3.1249f       3.1249f       3.1249f       3.1249f    
 capbs               3.1249f       3.1249f       3.1249f       3.1249f    
 temp               25.0000       25.0000       25.0000       25.0000     
 aic                                                                      
 nf                  1.0000        1.0000        1.0000        1.0000     
 sa                  0.            0.            0.            0.         
 sb                  0.            0.            0.            0.         
 sd                  0.            0.            0.            0.         
 saeff               0.            0.            0.            0.         
 sbeff               0.            0.            0.            0.         
 mulu0               1.0000        1.0000        1.0000        1.0000     
 mulua               1.0000        1.0000        1.0000        1.0000     
 mulub               1.0000        1.0000        1.0000        1.0000     
  
  
                                                                          
 element name       16:m5         16:m3         16:m2         16:m4       
 drain               2:net09      16:net29      16:net29       2:net09    
 gate               16:net29       0:net55       0:net45      16:net29    
 source              0:vdd!        0:vdd!        0:vdd!        0:0        
 bulk                0:vdd!        0:vdd!        0:vdd!        0:0        
 model               0:tsmc25dp    0:tsmc25dp    0:tsmc25dp    0:tsmc25dn 
 w eff             665.0238n     665.0238n     665.0238n     355.7470n    
 l eff             192.5619n     192.5619n     192.5619n     201.2131n    
 rd eff              0.            0.            0.            0.         
 rs eff              0.            0.            0.            0.         
 cdsat               0.            0.            0.            0.         
 cssat               0.            0.            0.            0.         
 capbd               1.7828f       1.7828f       1.7828f       1.2672f    
 capbs               1.7828f       1.7828f       1.7828f       1.2672f    
 temp               25.0000       25.0000       25.0000       25.0000     
 aic              off           off           off           off           
 nf                  1.0000        1.0000        1.0000        1.0000     
 sa                  0.            0.            0.            0.         
 sb                  0.            0.            0.            0.         
 sd                  0.            0.            0.            0.         
 saeff               0.            0.            0.            0.         
 sbeff               0.            0.            0.            0.         
 mulu0               1.0000        1.0000        1.0000        1.0000     
 mulua               1.0000        1.0000        1.0000        1.0000     
 mulub               1.0000        1.0000        1.0000        1.0000     
  
  
                                                                          
 element name       16:m1         16:m0         17:m5         17:m3       
 drain              16:net29      16:net11       0:net49      17:net29    
 gate                0:net45       0:net55      17:net29       0:b1       
 source             16:net11       0:0           0:vdd!        0:vdd!     
 bulk                0:0           0:0           0:vdd!        0:vdd!     
 model               0:tsmc25dn    0:tsmc25dn    0:tsmc25dp    0:tsmc25dp 
 w eff             355.7470n     355.7470n     665.0238n     665.0238n    
 l eff             201.2131n     201.2131n     192.5619n     192.5619n    
 rd eff              0.            0.            0.            0.         
 rs eff              0.            0.            0.            0.         
 cdsat               0.            0.            0.            0.         
 cssat               0.            0.            0.            0.         
 capbd               1.2672f       1.2672f       1.7828f       1.7828f    
 capbs               1.2672f       1.2672f       1.7828f       1.7828f    
 temp               25.0000       25.0000       25.0000       25.0000     
 aic              off           off           off           off           
 nf                  1.0000        1.0000        1.0000        1.0000     
 sa                  0.            0.            0.            0.         
 sb                  0.            0.            0.            0.         
 sd                  0.            0.            0.            0.         
 saeff               0.            0.            0.            0.         
 sbeff               0.            0.            0.            0.         
 mulu0               1.0000        1.0000        1.0000        1.0000     
 mulua               1.0000        1.0000        1.0000        1.0000     
 mulub               1.0000        1.0000        1.0000        1.0000     
  
  
                                                                          
 element name       17:m2         17:m4         17:m1         17:m0       
 drain              17:net29       0:net49      17:net29      17:net11    
 gate                0:a1         17:net29       0:a1          0:b1       
 source              0:vdd!        0:0          17:net11       0:0        
 bulk                0:vdd!        0:0           0:0           0:0        
 model               0:tsmc25dp    0:tsmc25dn    0:tsmc25dn    0:tsmc25dn 
 w eff             665.0238n     355.7470n     355.7470n     355.7470n    
 l eff             192.5619n     201.2131n     201.2131n     201.2131n    
 rd eff              0.            0.            0.            0.         
 rs eff              0.            0.            0.            0.         
 cdsat               0.            0.            0.            0.         
 cssat               0.            0.            0.            0.         
 capbd               1.7828f       1.2672f       1.2672f       1.2672f    
 capbs               1.7828f       1.2672f       1.2672f       1.2672f    
 temp               25.0000       25.0000       25.0000       25.0000     
 aic              off           off           off           off           
 nf                  1.0000        1.0000        1.0000        1.0000     
 sa                  0.            0.            0.            0.         
 sb                  0.            0.            0.            0.         
 sd                  0.            0.            0.            0.         
 saeff               0.            0.            0.            0.         
 sbeff               0.            0.            0.            0.         
 mulu0               1.0000        1.0000        1.0000        1.0000     
 mulua               1.0000        1.0000        1.0000        1.0000     
 mulub               1.0000        1.0000        1.0000        1.0000     
  
  
                                                                          
 element name       18:m5         18:m3         18:m2         18:m4       
 drain               0:net42      18:net11      18:net21       0:net42    
 gate               18:net21       0:net41       3:net09      18:net21    
 source              0:vdd!        0:vdd!       18:net11       0:0        
 bulk                0:vdd!        0:vdd!        0:vdd!        0:0        
 model               0:tsmc25dp    0:tsmc25dp    0:tsmc25dp    0:tsmc25dn 
 w eff               1.3850u       1.3850u       1.3850u     355.7470n    
 l eff             192.5619n     192.5619n     192.5619n     201.2131n    
 rd eff              0.            0.            0.            0.         
 rs eff              0.            0.            0.            0.         
 cdsat               0.            0.            0.            0.         
 cssat               0.            0.            0.            0.         
 capbd               3.1249f       3.1249f       3.1249f       1.2672f    
 capbs               3.1249f       3.1249f       3.1249f       1.2672f    
 temp               25.0000       25.0000       25.0000       25.0000     
 aic              off           off           off           off           
 nf                  1.0000        1.0000        1.0000        1.0000     
 sa                  0.            0.            0.            0.         
 sb                  0.            0.            0.            0.         
 sd                  0.            0.            0.            0.         
 saeff               0.            0.            0.            0.         
 sbeff               0.            0.            0.            0.         
 mulu0               1.0000        1.0000        1.0000        1.0000     
 mulua               1.0000        1.0000        1.0000        1.0000     
 mulub               1.0000        1.0000        1.0000        1.0000     
  
  
                                                                          
 element name       18:m1         18:m0         19:mn5        19:mn4      
 drain              18:net21      18:net21      19:1          19:2        
 gate                3:net09       0:net41       0:b2          0:a2       
 source              0:0           0:0           0:0           0:0        
 bulk                0:0           0:0           0:0           0:0        
 model               0:tsmc25dn    0:tsmc25dn    0:tsmc25dn    0:tsmc25dn 
 w eff             355.7470n     355.7470n     355.7470n     355.7470n    
 l eff             201.2131n     201.2131n     201.2131n     201.2131n    
 rd eff              0.            0.            0.            0.         
 rs eff              0.            0.            0.            0.         
 cdsat               0.            0.            0.            0.         
 cssat               0.            0.            0.            0.         
 capbd               1.2672f       1.2672f       1.2672f       1.2672f    
 capbs               1.2672f       1.2672f       1.2672f       1.2672f    
 temp               25.0000       25.0000       25.0000       25.0000     
 aic              off           off                                       
 nf                  1.0000        1.0000        1.0000        1.0000     
 sa                  0.            0.            0.            0.         
 sb                  0.            0.            0.            0.         
 sd                  0.            0.            0.            0.         
 saeff               0.            0.            0.            0.         
 sbeff               0.            0.            0.            0.         
 mulu0               1.0000        1.0000        1.0000        1.0000     
 mulua               1.0000        1.0000        1.0000        1.0000     
 mulub               1.0000        1.0000        1.0000        1.0000     
  
  
                                                                          
 element name       19:mn3        19:mn2        19:mn1        19:mn0      
 drain              19:net12      19:net16       0:net40       0:net40    
 gate               19:1           0:b2          0:a2         19:2        
 source              0:0           0:0          19:net16      19:net12    
 bulk                0:0           0:0           0:0           0:0        
 model               0:tsmc25dn    0:tsmc25dn    0:tsmc25dn    0:tsmc25dn 
 w eff             715.7470n     715.7470n     715.7470n     715.7470n    
 l eff             201.2131n     201.2131n     201.2131n     201.2131n    
 rd eff              0.            0.            0.            0.         
 rs eff              0.            0.            0.            0.         
 cdsat               0.            0.            0.            0.         
 cssat               0.            0.            0.            0.         
 capbd               2.0014f       2.0014f       2.0014f       2.0014f    
 capbs               2.0014f       2.0014f       2.0014f       2.0014f    
 temp               25.0000       25.0000       25.0000       25.0000     
 aic                                                                      
 nf                  1.0000        1.0000        1.0000        1.0000     
 sa                  0.            0.            0.            0.         
 sb                  0.            0.            0.            0.         
 sd                  0.            0.            0.            0.         
 saeff               0.            0.            0.            0.         
 sbeff               0.            0.            0.            0.         
 mulu0               1.0000        1.0000        1.0000        1.0000     
 mulua               1.0000        1.0000        1.0000        1.0000     
 mulub               1.0000        1.0000        1.0000        1.0000     
  
  
                                                                          
 element name       19:mp5        19:mp4        19:mp3        19:mp2      
 drain              19:1          19:2           0:net40      19:net47    
 gate                0:b2          0:a2         19:1           0:b2       
 source              0:vdd!        0:vdd!       19:net47       0:vdd!     
 bulk                0:vdd!        0:vdd!        0:vdd!        0:vdd!     
 model               0:tsmc25dp    0:tsmc25dp    0:tsmc25dp    0:tsmc25dp 
 w eff             665.0238n     665.0238n       1.3850u       1.3850u    
 l eff             192.5619n     192.5619n     192.5619n     192.5619n    
 rd eff              0.            0.            0.            0.         
 rs eff              0.            0.            0.            0.         
 cdsat               0.            0.            0.            0.         
 cssat               0.            0.            0.            0.         
 capbd               1.7828f       1.7828f       3.1249f       3.1249f    
 capbs               1.7828f       1.7828f       3.1249f       3.1249f    
 temp               25.0000       25.0000       25.0000       25.0000     
 aic                                                                      
 nf                  1.0000        1.0000        1.0000        1.0000     
 sa                  0.            0.            0.            0.         
 sb                  0.            0.            0.            0.         
 sd                  0.            0.            0.            0.         
 saeff               0.            0.            0.            0.         
 sbeff               0.            0.            0.            0.         
 mulu0               1.0000        1.0000        1.0000        1.0000     
 mulua               1.0000        1.0000        1.0000        1.0000     
 mulub               1.0000        1.0000        1.0000        1.0000     
  
  
                                                                          
 element name       19:mp1        19:mp0        20:mn5        20:mn4      
 drain               0:net40      19:net47      20:1          20:2        
 gate               19:2           0:a2          0:a2          0:net36    
 source             19:net47       0:vdd!        0:0           0:0        
 bulk                0:vdd!        0:vdd!        0:0           0:0        
[...]
       33:m1                  0.               0.               0.               0.             435.5424m          2.5746m      
       33:m0                  0.               0.               0.               0.             435.5424m          2.5746m      
       34:m5                  0.               0.               0.               0.            -608.6606m          2.2056m      
       34:m3                  0.               0.               0.               0.            -608.6606m          2.2056m      
       34:m2                  0.               0.               0.               0.            -608.6606m          2.2056m      
       34:m4                  0.               0.               0.               0.             435.5424m          2.5746m      
       34:m1                  0.               0.               0.               0.             435.5424m          2.5746m      
       34:m0                  0.               0.               0.               0.             435.5424m          2.5746m      
       35:m5                  0.               0.               0.               0.            -608.6606m          2.2056m      
       35:m3                  0.               0.               0.               0.            -608.6606m          2.2056m      
       35:m2                  0.               0.               0.               0.            -608.6606m          2.2056m      
       35:m4                  0.               0.               0.               0.             435.5424m          2.5746m      
       35:m1                  0.               0.               0.               0.             435.5424m          2.5746m      
       35:m0                  0.               0.               0.               0.             435.5424m          2.5746m      
       36:m5                  0.               0.               0.               0.            -608.6606m          2.2056m      
       36:m3                  0.               0.               0.               0.            -608.6606m          2.2056m      
       36:m2                  0.               0.               0.               0.            -608.6606m          2.2056m      
       36:m4                  0.               0.               0.               0.             435.5424m          2.5746m      
       36:m1                  0.               0.               0.               0.             435.5424m          2.5746m      
       36:m0                  0.               0.               0.               0.             435.5424m          2.5746m      
       37:m5                  0.               0.               0.               0.            -608.6606m          2.2056m      
       37:m3                  0.               0.               0.               0.            -608.6606m          2.2056m      
       37:m2                  0.               0.               0.               0.            -608.6606m          2.2056m      
       37:m4                  0.               0.               0.               0.             435.5424m          2.5746m      
       37:m1                  0.               0.               0.               0.             435.5424m          2.5746m      
       37:m0                  0.               0.               0.               0.             435.5424m          2.5746m      
       38:m5                  0.               0.               0.               0.            -608.6606m          2.2056m      
       38:m3                  0.               0.               0.               0.            -608.6606m          2.2056m      
       38:m2                  0.               0.               0.               0.            -608.6606m          2.2056m      
       38:m4                  0.               0.               0.               0.             435.5424m          2.5746m      
       38:m1                  0.               0.               0.               0.             435.5424m          2.5746m      
       38:m0                  0.               0.               0.               0.             435.5424m          2.5746m      
       39:m5                  0.               0.               0.               0.            -608.6606m          2.2056m      
       39:m3                  0.               0.               0.               0.            -608.6606m          2.2056m      
       39:m2                  0.               0.               0.               0.            -608.6606m          2.2056m      
       39:m4                  0.               0.               0.               0.             435.5424m          2.5746m      
       39:m1                  0.               0.               0.               0.             435.5424m          2.5746m      
       39:m0                  0.               0.               0.               0.             435.5424m          2.5746m      
       40:m5                  0.               0.               0.               0.            -608.6606m          2.2056m      
       40:m3                  0.               0.               0.               0.            -608.6606m          2.2056m      
       40:m2                  0.               0.               0.               0.            -608.6606m          2.2056m      
       40:m4                  0.               0.               0.               0.             435.5424m          2.5746m      
       40:m1                  0.               0.               0.               0.             435.5424m          2.5746m      
       40:m0                  0.               0.               0.               0.             435.5424m          2.5746m      
       41:m5                  0.               0.               0.               0.            -608.6606m          2.2056m      
       41:m3                  0.               0.               0.               0.            -608.6606m          2.2056m      
       41:m2                  0.               0.               0.               0.            -608.6606m          2.2056m      
       41:m4                  0.               0.               0.               0.             435.5424m          2.5746m      
       41:m1                  0.               0.               0.               0.             435.5424m          2.5746m      
       41:m0                  0.               0.               0.               0.             435.5424m          2.5746m      
       42:m5                  0.               0.               0.               0.            -608.6606m          2.2056m      
       42:m3                  0.               0.               0.               0.            -608.6606m          2.2056m      
       42:m2                  0.               0.               0.               0.            -608.6606m          2.2056m      
       42:m4                  0.               0.               0.               0.             435.5424m          2.5746m      
       42:m1                  0.               0.               0.               0.             435.5424m          2.5746m      
       42:m0                  0.               0.               0.               0.             435.5424m          2.5746m      
       43:m5                  0.               0.               0.               0.            -608.6606m          2.2056m      
       43:m3                  0.               0.               0.               0.            -608.6606m          2.2056m      
       43:m2                  0.               0.               0.               0.            -608.6606m          2.2056m      
       43:m4                  0.               0.               0.               0.             435.5424m          2.5746m      
       43:m1                  0.               0.               0.               0.             435.5424m          2.5746m      
       43:m0                  0.               0.               0.               0.             435.5424m          2.5746m      
       44:m5                  0.               0.               0.               0.            -608.6606m          2.2056m      
       44:m3                  0.               0.               0.               0.            -608.6606m          2.2056m      
       44:m2                  0.               0.               0.               0.            -608.6606m          2.2056m      
       44:m4                  0.               0.               0.               0.             435.5424m          2.5746m      
       44:m1                  0.               0.               0.               0.             435.5424m          2.5746m      
       44:m0                  0.               0.               0.               0.             435.5424m          2.5746m      
       45:m5                  0.               0.               0.               0.            -608.6606m          2.2056m      
       45:m3                  0.               0.               0.               0.            -608.6606m          2.2056m      
       45:m2                  0.               0.               0.               0.            -608.6606m          2.2056m      
       45:m4                  0.               0.               0.               0.             435.5424m          2.5746m      
       45:m1                  0.               0.               0.               0.             435.5424m          2.5746m      
       45:m0                  0.               0.               0.               0.             435.5424m          2.5746m      
       46:m5                  0.               0.               0.               0.            -608.6606m          2.2056m      
       46:m3                  0.               0.               0.               0.            -608.6606m          2.2056m      
       46:m2                  0.               0.               0.               0.            -608.6606m          2.2056m      
       46:m4                  0.               0.               0.               0.             435.5424m          2.5746m      
       46:m1                  0.               0.               0.               0.             435.5424m          2.5746m      
       46:m0                  0.               0.               0.               0.             435.5424m          2.5746m      
       47:m5                  0.               0.               0.               0.            -608.6606m          2.2056m      
       47:m3                  0.               0.               0.               0.            -608.6606m          2.2056m      
       47:m2                  0.               0.               0.               0.            -608.6606m          2.2056m      
       47:m4                  0.               0.               0.               0.             435.5424m          2.5746m      
       47:m1                  0.               0.               0.               0.             435.5424m          2.5746m      
       47:m0                  0.               0.               0.               0.             435.5424m          2.5746m      
       48:m5                  0.               0.               0.               0.            -608.6606m          2.2056m      
       48:m3                  0.               0.               0.               0.            -608.6606m          2.2056m      
       48:m2                  0.               0.               0.               0.            -608.6606m          2.2056m      
       48:m4                  0.               0.               0.               0.             435.5424m          2.5746m      
       48:m1                  0.               0.               0.               0.             435.5424m          2.5746m      
       48:m0                  0.               0.               0.               0.             435.5424m          2.5746m      
       49:m5                  0.               0.               0.               0.            -608.6606m          2.2056m      
       49:m3                  0.               0.               0.               0.            -608.6606m          2.2056m      
       49:m2                  0.               0.               0.               0.            -608.6606m          2.2056m      
       49:m4                  0.               0.               0.               0.             435.5424m          2.5746m      
       49:m1                  0.               0.               0.               0.             435.5424m          2.5746m      
       49:m0                  0.               0.               0.               0.             435.5424m          2.5746m      
 **warning** Due to a floating point overflow problem,
             the damped pseudo-tran method was used.

  *** initial damped pseudo transient completed. ***
  *** final try started ***
  *** final try succeeded *** 
1****** HSPICE -- F-2011.09-SP2 32-BIT (Feb 27 2012) linux ******               
 ******  
 * 'sup' is a variable you set to adjust the supply voltage

  ******  operating point information tnom=  25.000 temp=  25.000 *****
 ***** operating point status is voltage   simulation time is     0.     
     node    =voltage       node    =voltage       node    =voltage

 + 0:a0      =   2.5000   0:a1      =   0.       0:a2      =   2.5000 
 + 0:a3      =   0.       0:b0      =   0.       0:b1      =   2.5000 
 + 0:b2      =   0.       0:b3      =   2.5000   0:c0      =   2.5000 
 + 0:c4      =   2.5000   0:net15   =   2.5000   0:net19   =   2.5000 
 + 0:net20   =  20.7178n  0:net21   =   2.5000   0:net28   =   2.5000 
 + 0:net35   =   2.5000   0:net36   =   2.5000   0:net40   =   2.5000 
 + 0:net41   =  20.7178n  0:net42   =   2.5000   0:net45   =   2.5000 
 + 0:net46   =   2.5000   0:net49   =  20.7178n  0:net50   =  20.7178n
 + 0:net55   =   2.5000   0:s0      = 176.8846n  0:s1      = 159.4761n
 + 0:s2      = 176.8846n  0:s3      = 159.4761n  0:vdd!    =   2.5000 
 + 1:net018  = 159.4755n  1:net09   =   2.5000   2:net018  =   2.5000 
 + 2:net09   =   2.5000   3:net018  = 159.4757n  3:net09   =   2.5000 
 + 4:net018  =   2.5000   4:net09   =   2.5000   5:net034  =   2.5000 
 + 5:net037  =   2.5000   5:net040  =   2.5000   5:net046  =   2.5000 
 + 5:net049  =   2.5000   5:net052  =   2.5000   5:net064  =   2.5000 
 + 5:net067  =   2.5000   5:net070  =   2.5000   5:net076  =   2.5000 
 + 5:net079  =   2.5000   5:net082  =   2.5000   5:net26   =   2.5000 
 + 5:net29   =   2.5000   5:net32   =   2.5000   5:net35   =   2.5000 
 + 6:net11   =   2.5000   6:net21   =  27.3440n  7:1       =   2.5000 
 + 7:2       =  20.7177n  7:net12   =  45.4341n  7:net16   =   2.1406 
 + 7:net47   =   2.5000   8:1       =  20.7177n  8:2       =  20.7177n
 + 8:net12   =  79.5205n  8:net16   =  79.7377n  8:net47   = 452.9776m
 + 9:1       =   2.5000   9:2       =   2.5000   9:net12   =  88.4423n
 + 9:net16   =  88.2015n  9:net47   =   2.5000  10:net11   =  41.4356n
 +10:net29   =  82.8713n 11:net11   =   2.1774  11:net29   =   2.5000 
 +12:net11   =   2.5000  12:net21   =  27.3440n 13:1       =  20.7177n
 +13:2       =   2.5000  13:net12   =   2.1406  13:net16   =  45.4341n
 +13:net47   =   2.5000  14:1       =   2.5000  14:2       =  20.7178n
 +14:net12   =  45.4341n 14:net16   =   2.1406  14:net47   =   2.5000 
 +15:1       =  20.7177n 15:2       =  20.7179n 15:net12   =  79.5209n
 +15:net16   =  79.7381n 15:net47   = 452.9778m 16:net11   =  41.4357n
 +16:net29   =  82.8714n 17:net11   =  10.7010n 17:net29   =   2.5000 
 +18:net11   =   2.5000  18:net21   =  27.3440n 19:1       =   2.5000 
 +19:2       =  20.7177n 19:net12   =  45.4341n 19:net16   =   2.1406 
 +19:net47   =   2.5000  20:1       =  20.7177n 20:2       =  20.7178n
 +20:net12   =  79.5206n 20:net16   =  79.7378n 20:net47   = 452.9777m
 +21:1       =   2.5000  21:2       =   2.5000  21:net12   =  88.4423n
 +21:net16   =  88.2015n 21:net47   =   2.5000  22:net11   =  41.4357n
 +22:net29   =  82.8714n 23:net11   =   2.1774  23:net29   =   2.5000 
 +24:net11   =   2.5000  24:net21   =  27.3440n 25:1       =  20.7177n
 +25:2       =   2.5000  25:net12   =   2.1406  25:net16   =  45.4341n
 +25:net47   =   2.5000  26:1       =   2.5000  26:2       =  20.7178n
 +26:net12   =  45.4341n 26:net16   =   2.1406  26:net47   =   2.5000 
 +27:1       =  20.7177n 27:2       =  20.7179n 27:net12   =  79.5209n
 +27:net16   =  79.7381n 27:net47   = 452.9778m 28:net11   =  41.4357n
 +28:net29   =  82.8714n 29:net11   =  10.7010n 29:net29   =   2.5000 
 +30:net11   =   2.5000  30:net21   =  47.8404n 31:net11   =   2.5000 
 +31:net21   =  47.8404n 32:net11   =   2.5000  32:net21   =  47.8404n
 +33:net11   =   2.5000  33:net21   =  47.8404n 34:net11   =   2.5000 
 +34:net21   =  47.8404n 35:net11   =   2.5000  35:net21   =  47.8404n
 +36:net11   =   2.5000  36:net21   =  47.8404n 37:net11   =   2.5000 
 +37:net21   =  47.8404n 38:net11   =   2.5000  38:net21   =  47.8404n
 +39:net11   =   2.5000  39:net21   =  47.8404n 40:net11   =  95.6813n
 +40:net29   = 191.3626n 41:net11   =  95.6814n 41:net29   = 191.3629n
 +42:net11   =  95.6814n 42:net29   = 191.3629n 43:net11   =  95.6813n
 +43:net29   = 191.3626n 44:net11   =  95.6814n 44:net29   = 191.3629n
 +45:net11   =  95.6814n 45:net29   = 191.3629n 46:net11   =  95.6814n
 +46:net29   = 191.3629n 47:net11   =  95.6814n 47:net29   = 191.3629n
 +48:net11   =  95.6813n 48:net29   = 191.3626n 49:net11   =  95.6813n
 +49:net29   = 191.3626n

 ******  
 * 'sup' is a variable you set to adjust the supply voltage

  ******  transient analysis tnom=  25.000 temp=  25.000 *****
 tplh=   1.0882n  targ=   3.1882n   trig=   2.1000n
 static_current=  -7.2701n  from=   0.          to= 500.0000p
 static_power= -18.1753n
 start_dynamic=   3.1204n  targ=   3.1204n   trig=   0.     
 stop_dynamic=   3.3307n  targ=   3.3307n   trig=   0.     
 dynamic_current=-370.0547u  from=   3.1204n     to=   3.3307n
 dynamic_power=-925.1368u

          ***** job concluded
1****** HSPICE -- F-2011.09-SP2 32-BIT (Feb 27 2012) linux ******               
 ******  
 * 'sup' is a variable you set to adjust the supply voltage

  ******  job statistics summary tnom=  25.000 temp=  25.000 *****
  
  
 ******  Machine Information  ******
 CPU:
 model name	: Intel(R) Xeon(R) CPU E3-1240 V2 @ 3.40GHz
 cpu MHz	: 3401.000
  
 OS:
 Linux version 2.6.32-431.1.2.0.1.el6.x86_64 (mockbuild@c6b9.bsys.dev.centos.org
 ) (gcc version 4.4.7 20120313 (Red Hat 4.4.7-4) (GCC) ) #1 SMP Fri Dec 13 13:06
 :13 UTC 2013


  ******  HSPICE Threads Information  ******

  Command Line Threads Count :     1
  Available CPU Count        :     8
  Actual Threads Count       :     1


  ******  Circuit Statistics  ******
  # nodes       =     179 # elements   =     346
  # resistors   =       0 # capacitors =       0 # inductors   =       0
  # mutual_inds =       0 # vccs       =       0 # vcvs        =       0
  # cccs        =       0 # ccvs       =       0 # volt_srcs   =      10
  # curr_srcs   =       0 # diodes     =       0 # bjts        =       0
  # jfets       =       0 # mosfets    =     336 # U elements  =       0
  # T elements  =       0 # W elements =       0 # B elements  =       0
  # S elements  =       0 # P elements =       0 # va device   =       0
  # vector_srcs =       0


  ******  Runtime Statistics (seconds)  ******

  analysis           time    # points   tot. iter  conv.iter
  op point           0.05           1         137
  transient          0.15        2001         563         206 rev=        13
  readin             0.01
  errchk             0.04
  setup              0.00
  output             0.00


           peak memory used         98.35 megabytes
           total cpu time            0.25 seconds
           total elapsed time        0.63 seconds
           job started at     16:50:40 02/28/2014
           job ended   at     16:50:41 02/28/2014


 lic: Release hspice token(s) 
